[VMEM] WARNING: physical memory size is smaller than virtual memory size.

*** ChampSim Multicore Out-of-Order Simulator ***
Warmup Instructions: 50000000
Simulation Instructions: 100000000
Number of CPUs: 1
Page size: 4096

Off-chip DRAM Size: 16 GiB Channels: 1 Width: 64-bit Data Rate: 3205 MT/s
Heartbeat CPU 0 instructions: 10000001 cycles: 2722374 heartbeat IPC: 3.673 cumulative IPC: 3.673 (Simulation time: 00 hr 00 min 40 sec)
Heartbeat CPU 0 instructions: 20000001 cycles: 5352433 heartbeat IPC: 3.802 cumulative IPC: 3.737 (Simulation time: 00 hr 01 min 09 sec)
Heartbeat CPU 0 instructions: 30000001 cycles: 7991045 heartbeat IPC: 3.79 cumulative IPC: 3.754 (Simulation time: 00 hr 01 min 39 sec)
Heartbeat CPU 0 instructions: 40000002 cycles: 10628574 heartbeat IPC: 3.791 cumulative IPC: 3.763 (Simulation time: 00 hr 02 min 08 sec)
Warmup finished CPU 0 instructions: 50000000 cycles: 13266135 cumulative IPC: 3.769 (Simulation time: 00 hr 02 min 38 sec)
Warmup complete CPU 0 instructions: 50000000 cycles: 13266135 cumulative IPC: 3.769 (Simulation time: 00 hr 02 min 38 sec)
Heartbeat CPU 0 instructions: 50000005 cycles: 13266136 heartbeat IPC: 3.791 cumulative IPC: 5 (Simulation time: 00 hr 02 min 38 sec)
Heartbeat CPU 0 instructions: 60000009 cycles: 32953502 heartbeat IPC: 0.5079 cumulative IPC: 0.5079 (Simulation time: 00 hr 05 min 46 sec)
Heartbeat CPU 0 instructions: 70000010 cycles: 61089634 heartbeat IPC: 0.3554 cumulative IPC: 0.4182 (Simulation time: 00 hr 09 min 51 sec)
Heartbeat CPU 0 instructions: 80000010 cycles: 89219012 heartbeat IPC: 0.3555 cumulative IPC: 0.395 (Simulation time: 00 hr 12 min 35 sec)
Heartbeat CPU 0 instructions: 90000010 cycles: 117425869 heartbeat IPC: 0.3545 cumulative IPC: 0.384 (Simulation time: 00 hr 14 min 52 sec)
Heartbeat CPU 0 instructions: 100000014 cycles: 145027622 heartbeat IPC: 0.3623 cumulative IPC: 0.3795 (Simulation time: 00 hr 16 min 51 sec)
Heartbeat CPU 0 instructions: 110000014 cycles: 159257775 heartbeat IPC: 0.7027 cumulative IPC: 0.411 (Simulation time: 00 hr 18 min 01 sec)
Heartbeat CPU 0 instructions: 120000014 cycles: 167948053 heartbeat IPC: 1.151 cumulative IPC: 0.4525 (Simulation time: 00 hr 18 min 47 sec)
Heartbeat CPU 0 instructions: 130000016 cycles: 177077303 heartbeat IPC: 1.095 cumulative IPC: 0.4884 (Simulation time: 00 hr 19 min 37 sec)
Heartbeat CPU 0 instructions: 140000017 cycles: 186210198 heartbeat IPC: 1.095 cumulative IPC: 0.5204 (Simulation time: 00 hr 20 min 27 sec)
Simulation finished CPU 0 instructions: 100000004 cycles: 182116050 cumulative IPC: 0.5491 (Simulation time: 00 hr 21 min 17 sec)
Simulation complete CPU 0 instructions: 100000004 cycles: 182116050 cumulative IPC: 0.5491 (Simulation time: 00 hr 21 min 17 sec)

ChampSim completed all CPUs

=== Simulation ===
CPU 0 runs ./tracers/437.leslie3d-149B.champsimtrace.xz

Region of Interest Statistics

CPU 0 cumulative IPC: 0.5491 instructions: 100000004 cycles: 182116050
CPU 0 Branch Prediction Accuracy: 99.05% MPKI: 0.353 Average ROB Occupancy at Mispredict: 299.7
Branch type MPKI
BRANCH_DIRECT_JUMP: 0.00026
BRANCH_INDIRECT: 0
BRANCH_CONDITIONAL: 0.3518
BRANCH_DIRECT_CALL: 0.00046
BRANCH_INDIRECT_CALL: 0
BRANCH_RETURN: 0.00043

cpu0->cpu0_STLB TOTAL        ACCESS:      30942 HIT:       4797 MISS:      26145 MSHR_MERGE:          0
cpu0->cpu0_STLB LOAD         ACCESS:      30942 HIT:       4797 MISS:      26145 MSHR_MERGE:          0
cpu0->cpu0_STLB RFO          ACCESS:          0 HIT:          0 MISS:          0 MSHR_MERGE:          0
cpu0->cpu0_STLB PREFETCH     ACCESS:          0 HIT:          0 MISS:          0 MSHR_MERGE:          0
cpu0->cpu0_STLB WRITE        ACCESS:          0 HIT:          0 MISS:          0 MSHR_MERGE:          0
cpu0->cpu0_STLB TRANSLATION  ACCESS:          0 HIT:          0 MISS:          0 MSHR_MERGE:          0
cpu0->cpu0_STLB PREFETCH REQUESTED:          0 ISSUED:          0 USEFUL:          0 USELESS:          0
cpu0->cpu0_STLB AVERAGE MISS LATENCY: 463.6 cycles
cpu0->cpu0_L2C TOTAL        ACCESS:    1631213 HIT:     224861 MISS:    1406352 MSHR_MERGE:          0
cpu0->cpu0_L2C LOAD         ACCESS:     731509 HIT:      18628 MISS:     712881 MSHR_MERGE:          0
cpu0->cpu0_L2C RFO          ACCESS:     356174 HIT:      18893 MISS:     337281 MSHR_MERGE:          0
cpu0->cpu0_L2C PREFETCH     ACCESS:          0 HIT:          0 MISS:          0 MSHR_MERGE:          0
cpu0->cpu0_L2C WRITE        ACCESS:     503515 HIT:     184043 MISS:     319472 MSHR_MERGE:          0
cpu0->cpu0_L2C TRANSLATION  ACCESS:      40015 HIT:       3297 MISS:      36718 MSHR_MERGE:          0
cpu0->cpu0_L2C PREFETCH REQUESTED:          0 ISSUED:          0 USEFUL:          0 USELESS:          0
cpu0->cpu0_L2C AVERAGE MISS LATENCY: 168.5 cycles
cpu0->cpu0_L1I TOTAL        ACCESS:   16933975 HIT:   16933492 MISS:        483 MSHR_MERGE:        197
cpu0->cpu0_L1I LOAD         ACCESS:   16933975 HIT:   16933492 MISS:        483 MSHR_MERGE:        197
cpu0->cpu0_L1I RFO          ACCESS:          0 HIT:          0 MISS:          0 MSHR_MERGE:          0
cpu0->cpu0_L1I PREFETCH     ACCESS:          0 HIT:          0 MISS:          0 MSHR_MERGE:          0
cpu0->cpu0_L1I WRITE        ACCESS:          0 HIT:          0 MISS:          0 MSHR_MERGE:          0
cpu0->cpu0_L1I TRANSLATION  ACCESS:          0 HIT:          0 MISS:          0 MSHR_MERGE:          0
cpu0->cpu0_L1I PREFETCH REQUESTED:          0 ISSUED:          0 USEFUL:          0 USELESS:          0
cpu0->cpu0_L1I AVERAGE MISS LATENCY: 224.3 cycles
cpu0->cpu0_L1D TOTAL        ACCESS:   32201839 HIT:   28845438 MISS:    3356401 MSHR_MERGE:    2228988
cpu0->cpu0_L1D LOAD         ACCESS:   27440998 HIT:   25739795 MISS:    1701203 MSHR_MERGE:     969980
cpu0->cpu0_L1D RFO          ACCESS:          0 HIT:          0 MISS:          0 MSHR_MERGE:          0
cpu0->cpu0_L1D PREFETCH     ACCESS:          0 HIT:          0 MISS:          0 MSHR_MERGE:          0
cpu0->cpu0_L1D WRITE        ACCESS:    4708521 HIT:    3093343 MISS:    1615178 MSHR_MERGE:    1259003
cpu0->cpu0_L1D TRANSLATION  ACCESS:      52320 HIT:      12300 MISS:      40020 MSHR_MERGE:          5
cpu0->cpu0_L1D PREFETCH REQUESTED:          0 ISSUED:          0 USEFUL:          0 USELESS:          0
cpu0->cpu0_L1D AVERAGE MISS LATENCY: 218 cycles
cpu0->cpu0_ITLB TOTAL        ACCESS:   14433287 HIT:   14433243 MISS:         44 MSHR_MERGE:         29
cpu0->cpu0_ITLB LOAD         ACCESS:   14433287 HIT:   14433243 MISS:         44 MSHR_MERGE:         29
cpu0->cpu0_ITLB RFO          ACCESS:          0 HIT:          0 MISS:          0 MSHR_MERGE:          0
cpu0->cpu0_ITLB PREFETCH     ACCESS:          0 HIT:          0 MISS:          0 MSHR_MERGE:          0
cpu0->cpu0_ITLB WRITE        ACCESS:          0 HIT:          0 MISS:          0 MSHR_MERGE:          0
cpu0->cpu0_ITLB TRANSLATION  ACCESS:          0 HIT:          0 MISS:          0 MSHR_MERGE:          0
cpu0->cpu0_ITLB PREFETCH REQUESTED:          0 ISSUED:          0 USEFUL:          0 USELESS:          0
cpu0->cpu0_ITLB AVERAGE MISS LATENCY: 842.1 cycles
cpu0->cpu0_DTLB TOTAL        ACCESS:   31000916 HIT:   30908330 MISS:      92586 MSHR_MERGE:      61659
cpu0->cpu0_DTLB LOAD         ACCESS:   31000916 HIT:   30908330 MISS:      92586 MSHR_MERGE:      61659
cpu0->cpu0_DTLB RFO          ACCESS:          0 HIT:          0 MISS:          0 MSHR_MERGE:          0
cpu0->cpu0_DTLB PREFETCH     ACCESS:          0 HIT:          0 MISS:          0 MSHR_MERGE:          0
cpu0->cpu0_DTLB WRITE        ACCESS:          0 HIT:          0 MISS:          0 MSHR_MERGE:          0
cpu0->cpu0_DTLB TRANSLATION  ACCESS:          0 HIT:          0 MISS:          0 MSHR_MERGE:          0
cpu0->cpu0_DTLB PREFETCH REQUESTED:          0 ISSUED:          0 USEFUL:          0 USELESS:          0
cpu0->cpu0_DTLB AVERAGE MISS LATENCY: 397.3 cycles
cpu0->LLC TOTAL        ACCESS:    1568749 HIT:     507780 MISS:    1060969 MSHR_MERGE:          0
cpu0->LLC LOAD         ACCESS:     712881 HIT:      15609 MISS:     697272 MSHR_MERGE:          0
cpu0->LLC RFO          ACCESS:     337281 HIT:       3036 MISS:     334245 MSHR_MERGE:          0
cpu0->LLC PREFETCH     ACCESS:          0 HIT:          0 MISS:          0 MSHR_MERGE:          0
cpu0->LLC WRITE        ACCESS:     481869 HIT:     481389 MISS:        480 MSHR_MERGE:          0
cpu0->LLC TRANSLATION  ACCESS:      36718 HIT:       7746 MISS:      28972 MSHR_MERGE:          0
cpu0->LLC PREFETCH REQUESTED:          0 ISSUED:          0 USEFUL:          0 USELESS:          0
cpu0->LLC AVERAGE MISS LATENCY: 205.8 cycles

DRAM Statistics

Channel 0 RQ ROW_BUFFER_HIT:       1657
  ROW_BUFFER_MISS:    1058795
  AVG DBUS CONGESTED CYCLE: 10.65
Channel 0 WQ ROW_BUFFER_HIT:     159882
  ROW_BUFFER_MISS:     311651
  FULL:          0
Channel 0 REFRESHES ISSUED:      15176
