[VMEM] WARNING: physical memory size is smaller than virtual memory size.

*** ChampSim Multicore Out-of-Order Simulator ***
Warmup Instructions: 50000000
Simulation Instructions: 100000000
Number of CPUs: 1
Page size: 4096

Off-chip DRAM Size: 16 GiB Channels: 1 Width: 64-bit Data Rate: 3205 MT/s
Heartbeat CPU 0 instructions: 10000000 cycles: 2558339 heartbeat IPC: 3.909 cumulative IPC: 3.909 (Simulation time: 00 hr 00 min 55 sec)
Heartbeat CPU 0 instructions: 20000002 cycles: 5147765 heartbeat IPC: 3.862 cumulative IPC: 3.885 (Simulation time: 00 hr 01 min 51 sec)
Heartbeat CPU 0 instructions: 30000005 cycles: 7660462 heartbeat IPC: 3.98 cumulative IPC: 3.916 (Simulation time: 00 hr 02 min 47 sec)
Heartbeat CPU 0 instructions: 40000006 cycles: 10176785 heartbeat IPC: 3.974 cumulative IPC: 3.931 (Simulation time: 00 hr 03 min 42 sec)
Warmup finished CPU 0 instructions: 50000000 cycles: 12680494 cumulative IPC: 3.943 (Simulation time: 00 hr 04 min 36 sec)
Warmup complete CPU 0 instructions: 50000000 cycles: 12680494 cumulative IPC: 3.943 (Simulation time: 00 hr 04 min 36 sec)
Heartbeat CPU 0 instructions: 50000010 cycles: 12680496 heartbeat IPC: 3.994 cumulative IPC: 5 (Simulation time: 00 hr 04 min 36 sec)
Heartbeat CPU 0 instructions: 60000014 cycles: 17389950 heartbeat IPC: 2.123 cumulative IPC: 2.123 (Simulation time: 00 hr 05 min 54 sec)
Heartbeat CPU 0 instructions: 70000018 cycles: 22425533 heartbeat IPC: 1.986 cumulative IPC: 2.052 (Simulation time: 00 hr 07 min 15 sec)
Heartbeat CPU 0 instructions: 80000018 cycles: 27461331 heartbeat IPC: 1.986 cumulative IPC: 2.03 (Simulation time: 00 hr 08 min 31 sec)
Heartbeat CPU 0 instructions: 90000019 cycles: 32570755 heartbeat IPC: 1.957 cumulative IPC: 2.011 (Simulation time: 00 hr 09 min 32 sec)
Heartbeat CPU 0 instructions: 100000019 cycles: 37601305 heartbeat IPC: 1.988 cumulative IPC: 2.006 (Simulation time: 00 hr 10 min 53 sec)
Heartbeat CPU 0 instructions: 110000020 cycles: 42648410 heartbeat IPC: 1.981 cumulative IPC: 2.002 (Simulation time: 00 hr 12 min 12 sec)
Heartbeat CPU 0 instructions: 120000023 cycles: 47695120 heartbeat IPC: 1.981 cumulative IPC: 1.999 (Simulation time: 00 hr 13 min 34 sec)
Heartbeat CPU 0 instructions: 130000025 cycles: 52724838 heartbeat IPC: 1.988 cumulative IPC: 1.998 (Simulation time: 00 hr 14 min 48 sec)
Heartbeat CPU 0 instructions: 140000026 cycles: 57791294 heartbeat IPC: 1.974 cumulative IPC: 1.995 (Simulation time: 00 hr 16 min 09 sec)
Simulation finished CPU 0 instructions: 100000002 cycles: 50154868 cumulative IPC: 1.994 (Simulation time: 00 hr 17 min 28 sec)
Simulation complete CPU 0 instructions: 100000002 cycles: 50154868 cumulative IPC: 1.994 (Simulation time: 00 hr 17 min 28 sec)

ChampSim completed all CPUs

=== Simulation ===
CPU 0 runs /home/zevs_gromovergec/Programming/Interview/Sber/Programming_modulating/ChampSim/tracers/456.hmmer-327B.champsimtrace.xz

Region of Interest Statistics

CPU 0 cumulative IPC: 1.994 instructions: 100000002 cycles: 50154868
CPU 0 Branch Prediction Accuracy: 99.38% MPKI: 0.2744 Average ROB Occupancy at Mispredict: 106.2
Branch type MPKI
BRANCH_DIRECT_JUMP: 2e-05
BRANCH_INDIRECT: 0.00042
BRANCH_CONDITIONAL: 0.2738
BRANCH_DIRECT_CALL: 4e-05
BRANCH_INDIRECT_CALL: 0.0001
BRANCH_RETURN: 5e-05

cpu0->cpu0_STLB TOTAL        ACCESS:       6569 HIT:       6435 MISS:        134 MSHR_MERGE:          0
cpu0->cpu0_STLB LOAD         ACCESS:       6569 HIT:       6435 MISS:        134 MSHR_MERGE:          0
cpu0->cpu0_STLB RFO          ACCESS:          0 HIT:          0 MISS:          0 MSHR_MERGE:          0
cpu0->cpu0_STLB PREFETCH     ACCESS:          0 HIT:          0 MISS:          0 MSHR_MERGE:          0
cpu0->cpu0_STLB WRITE        ACCESS:          0 HIT:          0 MISS:          0 MSHR_MERGE:          0
cpu0->cpu0_STLB TRANSLATION  ACCESS:          0 HIT:          0 MISS:          0 MSHR_MERGE:          0
cpu0->cpu0_STLB PREFETCH REQUESTED:          0 ISSUED:          0 USEFUL:          0 USELESS:          0
cpu0->cpu0_STLB AVERAGE MISS LATENCY: 676.6 cycles
cpu0->cpu0_L2C TOTAL        ACCESS:     681268 HIT:     442014 MISS:     239254 MSHR_MERGE:          0
cpu0->cpu0_L2C LOAD         ACCESS:     147634 HIT:     141734 MISS:       5900 MSHR_MERGE:          0
cpu0->cpu0_L2C RFO          ACCESS:     266399 HIT:      33244 MISS:     233155 MSHR_MERGE:          0
cpu0->cpu0_L2C PREFETCH     ACCESS:          0 HIT:          0 MISS:          0 MSHR_MERGE:          0
cpu0->cpu0_L2C WRITE        ACCESS:     267065 HIT:     267028 MISS:         37 MSHR_MERGE:          0
cpu0->cpu0_L2C TRANSLATION  ACCESS:        170 HIT:          8 MISS:        162 MSHR_MERGE:          0
cpu0->cpu0_L2C PREFETCH REQUESTED:          0 ISSUED:          0 USEFUL:          0 USELESS:          0
cpu0->cpu0_L2C AVERAGE MISS LATENCY: 80.26 cycles
cpu0->cpu0_L1I TOTAL        ACCESS:   19742021 HIT:   19742016 MISS:          5 MSHR_MERGE:          0
cpu0->cpu0_L1I LOAD         ACCESS:   19742021 HIT:   19742016 MISS:          5 MSHR_MERGE:          0
cpu0->cpu0_L1I RFO          ACCESS:          0 HIT:          0 MISS:          0 MSHR_MERGE:          0
cpu0->cpu0_L1I PREFETCH     ACCESS:          0 HIT:          0 MISS:          0 MSHR_MERGE:          0
cpu0->cpu0_L1I WRITE        ACCESS:          0 HIT:          0 MISS:          0 MSHR_MERGE:          0
cpu0->cpu0_L1I TRANSLATION  ACCESS:          0 HIT:          0 MISS:          0 MSHR_MERGE:          0
cpu0->cpu0_L1I PREFETCH REQUESTED:          0 ISSUED:          0 USEFUL:          0 USELESS:          0
cpu0->cpu0_L1I AVERAGE MISS LATENCY: 226.6 cycles
cpu0->cpu0_L1D TOTAL        ACCESS:   44457840 HIT:   42107788 MISS:    2350052 MSHR_MERGE:    1935853
cpu0->cpu0_L1D LOAD         ACCESS:   31488268 HIT:   31335677 MISS:     152591 MSHR_MERGE:       4962
cpu0->cpu0_L1D RFO          ACCESS:          0 HIT:          0 MISS:          0 MSHR_MERGE:          0
cpu0->cpu0_L1D PREFETCH     ACCESS:          0 HIT:          0 MISS:          0 MSHR_MERGE:          0
cpu0->cpu0_L1D WRITE        ACCESS:   12969304 HIT:   10772013 MISS:    2197291 MSHR_MERGE:    1930891
cpu0->cpu0_L1D TRANSLATION  ACCESS:        268 HIT:         98 MISS:        170 MSHR_MERGE:          0
cpu0->cpu0_L1D PREFETCH REQUESTED:          0 ISSUED:          0 USEFUL:          0 USELESS:          0
cpu0->cpu0_L1D AVERAGE MISS LATENCY: 54.95 cycles
cpu0->cpu0_ITLB TOTAL        ACCESS:   18196192 HIT:   18196190 MISS:          2 MSHR_MERGE:          1
cpu0->cpu0_ITLB LOAD         ACCESS:   18196192 HIT:   18196190 MISS:          2 MSHR_MERGE:          1
cpu0->cpu0_ITLB RFO          ACCESS:          0 HIT:          0 MISS:          0 MSHR_MERGE:          0
cpu0->cpu0_ITLB PREFETCH     ACCESS:          0 HIT:          0 MISS:          0 MSHR_MERGE:          0
cpu0->cpu0_ITLB WRITE        ACCESS:          0 HIT:          0 MISS:          0 MSHR_MERGE:          0
cpu0->cpu0_ITLB TRANSLATION  ACCESS:          0 HIT:          0 MISS:          0 MSHR_MERGE:          0
cpu0->cpu0_ITLB PREFETCH REQUESTED:          0 ISSUED:          0 USEFUL:          0 USELESS:          0
cpu0->cpu0_ITLB AVERAGE MISS LATENCY: 749 cycles
cpu0->cpu0_DTLB TOTAL        ACCESS:   42335693 HIT:   42324172 MISS:      11521 MSHR_MERGE:       4953
cpu0->cpu0_DTLB LOAD         ACCESS:   42335693 HIT:   42324172 MISS:      11521 MSHR_MERGE:       4953
cpu0->cpu0_DTLB RFO          ACCESS:          0 HIT:          0 MISS:          0 MSHR_MERGE:          0
cpu0->cpu0_DTLB PREFETCH     ACCESS:          0 HIT:          0 MISS:          0 MSHR_MERGE:          0
cpu0->cpu0_DTLB WRITE        ACCESS:          0 HIT:          0 MISS:          0 MSHR_MERGE:          0
cpu0->cpu0_DTLB TRANSLATION  ACCESS:          0 HIT:          0 MISS:          0 MSHR_MERGE:          0
cpu0->cpu0_DTLB PREFETCH REQUESTED:          0 ISSUED:          0 USEFUL:          0 USELESS:          0
cpu0->cpu0_DTLB AVERAGE MISS LATENCY: 18.72 cycles
cpu0->LLC TOTAL        ACCESS:     473708 HIT:     390634 MISS:      83074 MSHR_MERGE:          0
cpu0->LLC LOAD         ACCESS:       5900 HIT:       4637 MISS:       1263 MSHR_MERGE:          0
cpu0->LLC RFO          ACCESS:     233139 HIT:     151902 MISS:      81237 MSHR_MERGE:          0
cpu0->LLC PREFETCH     ACCESS:          0 HIT:          0 MISS:          0 MSHR_MERGE:          0
cpu0->LLC WRITE        ACCESS:     234507 HIT:     234092 MISS:        415 MSHR_MERGE:          0
cpu0->LLC TRANSLATION  ACCESS:        162 HIT:          3 MISS:        159 MSHR_MERGE:          0
cpu0->LLC PREFETCH REQUESTED:          0 ISSUED:          0 USEFUL:          0 USELESS:          0
cpu0->LLC AVERAGE MISS LATENCY: 186.9 cycles

DRAM Statistics

Channel 0 RQ ROW_BUFFER_HIT:         21
  ROW_BUFFER_MISS:      82634
  AVG DBUS CONGESTED CYCLE: 7.274
Channel 0 WQ ROW_BUFFER_HIT:       1569
  ROW_BUFFER_MISS:      79100
  FULL:          0
Channel 0 REFRESHES ISSUED:       4180
