[VMEM] WARNING: physical memory size is smaller than virtual memory size.

*** ChampSim Multicore Out-of-Order Simulator ***
Warmup Instructions: 50000000
Simulation Instructions: 100000000
Number of CPUs: 1
Page size: 4096

Off-chip DRAM Size: 16 GiB Channels: 1 Width: 64-bit Data Rate: 3205 MT/s
Heartbeat CPU 0 instructions: 10000000 cycles: 2560240 heartbeat IPC: 3.906 cumulative IPC: 3.906 (Simulation time: 00 hr 00 min 46 sec)
Heartbeat CPU 0 instructions: 20000003 cycles: 5072654 heartbeat IPC: 3.98 cumulative IPC: 3.943 (Simulation time: 00 hr 01 min 31 sec)
Heartbeat CPU 0 instructions: 30000003 cycles: 7589876 heartbeat IPC: 3.973 cumulative IPC: 3.953 (Simulation time: 00 hr 02 min 17 sec)
Heartbeat CPU 0 instructions: 40000006 cycles: 10101930 heartbeat IPC: 3.981 cumulative IPC: 3.96 (Simulation time: 00 hr 03 min 02 sec)
Warmup finished CPU 0 instructions: 50000000 cycles: 12616271 cumulative IPC: 3.963 (Simulation time: 00 hr 03 min 48 sec)
Warmup complete CPU 0 instructions: 50000000 cycles: 12616271 cumulative IPC: 3.963 (Simulation time: 00 hr 03 min 48 sec)
Heartbeat CPU 0 instructions: 50000008 cycles: 12616273 heartbeat IPC: 3.977 cumulative IPC: 4 (Simulation time: 00 hr 03 min 48 sec)
Heartbeat CPU 0 instructions: 60000008 cycles: 16898554 heartbeat IPC: 2.335 cumulative IPC: 2.335 (Simulation time: 00 hr 04 min 44 sec)
Heartbeat CPU 0 instructions: 70000010 cycles: 21234221 heartbeat IPC: 2.306 cumulative IPC: 2.321 (Simulation time: 00 hr 05 min 40 sec)
Heartbeat CPU 0 instructions: 80000011 cycles: 25524270 heartbeat IPC: 2.331 cumulative IPC: 2.324 (Simulation time: 00 hr 06 min 36 sec)
Heartbeat CPU 0 instructions: 90000012 cycles: 29824750 heartbeat IPC: 2.325 cumulative IPC: 2.324 (Simulation time: 00 hr 07 min 31 sec)
Heartbeat CPU 0 instructions: 100000012 cycles: 34039534 heartbeat IPC: 2.373 cumulative IPC: 2.334 (Simulation time: 00 hr 08 min 25 sec)
Heartbeat CPU 0 instructions: 110000015 cycles: 38151703 heartbeat IPC: 2.432 cumulative IPC: 2.35 (Simulation time: 00 hr 09 min 19 sec)
Heartbeat CPU 0 instructions: 120000016 cycles: 50738086 heartbeat IPC: 0.7945 cumulative IPC: 1.836 (Simulation time: 00 hr 11 min 27 sec)
Heartbeat CPU 0 instructions: 130000017 cycles: 54785940 heartbeat IPC: 2.47 cumulative IPC: 1.897 (Simulation time: 00 hr 12 min 23 sec)
Heartbeat CPU 0 instructions: 140000021 cycles: 62000246 heartbeat IPC: 1.386 cumulative IPC: 1.822 (Simulation time: 00 hr 13 min 39 sec)
Simulation finished CPU 0 instructions: 100000000 cycles: 54215622 cumulative IPC: 1.844 (Simulation time: 00 hr 14 min 38 sec)
Simulation complete CPU 0 instructions: 100000000 cycles: 54215622 cumulative IPC: 1.844 (Simulation time: 00 hr 14 min 38 sec)

ChampSim completed all CPUs

=== Simulation ===
CPU 0 runs /home/zevs_gromovergec/Programming/Interview/Sber/Programming_modulating/ChampSim/tracers/625.x264_s-39B.champsimtrace.xz

Region of Interest Statistics

CPU 0 cumulative IPC: 1.844 instructions: 100000000 cycles: 54215622
CPU 0 Branch Prediction Accuracy: 91.33% MPKI: 3.491 Average ROB Occupancy at Mispredict: 78.05
Branch type MPKI
BRANCH_DIRECT_JUMP: 0.0026
BRANCH_INDIRECT: 0.00318
BRANCH_CONDITIONAL: 3.316
BRANCH_DIRECT_CALL: 0.0024
BRANCH_INDIRECT_CALL: 0.06673
BRANCH_RETURN: 0.1004

cpu0->cpu0_STLB TOTAL        ACCESS:      92249 HIT:      89771 MISS:       2478 MSHR_MERGE:          0
cpu0->cpu0_STLB LOAD         ACCESS:      92249 HIT:      89771 MISS:       2478 MSHR_MERGE:          0
cpu0->cpu0_STLB RFO          ACCESS:          0 HIT:          0 MISS:          0 MSHR_MERGE:          0
cpu0->cpu0_STLB PREFETCH     ACCESS:          0 HIT:          0 MISS:          0 MSHR_MERGE:          0
cpu0->cpu0_STLB WRITE        ACCESS:          0 HIT:          0 MISS:          0 MSHR_MERGE:          0
cpu0->cpu0_STLB TRANSLATION  ACCESS:          0 HIT:          0 MISS:          0 MSHR_MERGE:          0
cpu0->cpu0_STLB PREFETCH REQUESTED:          0 ISSUED:          0 USEFUL:          0 USELESS:          0
cpu0->cpu0_STLB AVERAGE MISS LATENCY: 742.8 cycles
cpu0->cpu0_L2C TOTAL        ACCESS:     847656 HIT:     518876 MISS:     328780 MSHR_MERGE:          0
cpu0->cpu0_L2C LOAD         ACCESS:     643150 HIT:     470561 MISS:     172589 MSHR_MERGE:          0
cpu0->cpu0_L2C RFO          ACCESS:      86017 HIT:      14424 MISS:      71593 MSHR_MERGE:          0
cpu0->cpu0_L2C PREFETCH     ACCESS:          0 HIT:          0 MISS:          0 MSHR_MERGE:          0
cpu0->cpu0_L2C WRITE        ACCESS:     114964 HIT:      33888 MISS:      81076 MSHR_MERGE:          0
cpu0->cpu0_L2C TRANSLATION  ACCESS:       3525 HIT:          3 MISS:       3522 MSHR_MERGE:          0
cpu0->cpu0_L2C PREFETCH REQUESTED:          0 ISSUED:          0 USEFUL:          0 USELESS:          0
cpu0->cpu0_L2C AVERAGE MISS LATENCY: 143.2 cycles
cpu0->cpu0_L1I TOTAL        ACCESS:   11187516 HIT:   10448093 MISS:     739423 MSHR_MERGE:     293624
cpu0->cpu0_L1I LOAD         ACCESS:   11187516 HIT:   10448093 MISS:     739423 MSHR_MERGE:     293624
cpu0->cpu0_L1I RFO          ACCESS:          0 HIT:          0 MISS:          0 MSHR_MERGE:          0
cpu0->cpu0_L1I PREFETCH     ACCESS:          0 HIT:          0 MISS:          0 MSHR_MERGE:          0
cpu0->cpu0_L1I WRITE        ACCESS:          0 HIT:          0 MISS:          0 MSHR_MERGE:          0
cpu0->cpu0_L1I TRANSLATION  ACCESS:          0 HIT:          0 MISS:          0 MSHR_MERGE:          0
cpu0->cpu0_L1I PREFETCH REQUESTED:          0 ISSUED:          0 USEFUL:          0 USELESS:          0
cpu0->cpu0_L1I AVERAGE MISS LATENCY: 7.645 cycles
cpu0->cpu0_L1D TOTAL        ACCESS:   21703883 HIT:   20597132 MISS:    1106751 MSHR_MERGE:     819856
cpu0->cpu0_L1D LOAD         ACCESS:   15030271 HIT:   14586827 MISS:     443444 MSHR_MERGE:     246093
cpu0->cpu0_L1D RFO          ACCESS:          0 HIT:          0 MISS:          0 MSHR_MERGE:          0
cpu0->cpu0_L1D PREFETCH     ACCESS:          0 HIT:          0 MISS:          0 MSHR_MERGE:          0
cpu0->cpu0_L1D WRITE        ACCESS:    6668637 HIT:    6008947 MISS:     659690 MSHR_MERGE:     573671
cpu0->cpu0_L1D TRANSLATION  ACCESS:       4975 HIT:       1358 MISS:       3617 MSHR_MERGE:         92
cpu0->cpu0_L1D PREFETCH REQUESTED:          0 ISSUED:          0 USEFUL:          0 USELESS:          0
cpu0->cpu0_L1D AVERAGE MISS LATENCY: 171 cycles
cpu0->cpu0_ITLB TOTAL        ACCESS:    9850973 HIT:    9847553 MISS:       3420 MSHR_MERGE:       2399
cpu0->cpu0_ITLB LOAD         ACCESS:    9850973 HIT:    9847553 MISS:       3420 MSHR_MERGE:       2399
cpu0->cpu0_ITLB RFO          ACCESS:          0 HIT:          0 MISS:          0 MSHR_MERGE:          0
cpu0->cpu0_ITLB PREFETCH     ACCESS:          0 HIT:          0 MISS:          0 MSHR_MERGE:          0
cpu0->cpu0_ITLB WRITE        ACCESS:          0 HIT:          0 MISS:          0 MSHR_MERGE:          0
cpu0->cpu0_ITLB TRANSLATION  ACCESS:          0 HIT:          0 MISS:          0 MSHR_MERGE:          0
cpu0->cpu0_ITLB PREFETCH REQUESTED:          0 ISSUED:          0 USEFUL:          0 USELESS:          0
cpu0->cpu0_ITLB AVERAGE MISS LATENCY: 54.83 cycles
cpu0->cpu0_DTLB TOTAL        ACCESS:   20556101 HIT:   20364860 MISS:     191241 MSHR_MERGE:     100013
cpu0->cpu0_DTLB LOAD         ACCESS:   20556101 HIT:   20364860 MISS:     191241 MSHR_MERGE:     100013
cpu0->cpu0_DTLB RFO          ACCESS:          0 HIT:          0 MISS:          0 MSHR_MERGE:          0
cpu0->cpu0_DTLB PREFETCH     ACCESS:          0 HIT:          0 MISS:          0 MSHR_MERGE:          0
cpu0->cpu0_DTLB WRITE        ACCESS:          0 HIT:          0 MISS:          0 MSHR_MERGE:          0
cpu0->cpu0_DTLB TRANSLATION  ACCESS:          0 HIT:          0 MISS:          0 MSHR_MERGE:          0
cpu0->cpu0_DTLB PREFETCH REQUESTED:          0 ISSUED:          0 USEFUL:          0 USELESS:          0
cpu0->cpu0_DTLB AVERAGE MISS LATENCY: 24.65 cycles
cpu0->LLC TOTAL        ACCESS:     342180 HIT:     154064 MISS:     188116 MSHR_MERGE:          0
cpu0->LLC LOAD         ACCESS:     172589 HIT:      60768 MISS:     111821 MSHR_MERGE:          0
cpu0->LLC RFO          ACCESS:      71592 HIT:       1055 MISS:      70537 MSHR_MERGE:          0
cpu0->LLC PREFETCH     ACCESS:          0 HIT:          0 MISS:          0 MSHR_MERGE:          0
cpu0->LLC WRITE        ACCESS:      94477 HIT:      92199 MISS:       2278 MSHR_MERGE:          0
cpu0->LLC TRANSLATION  ACCESS:       3522 HIT:         42 MISS:       3480 MSHR_MERGE:          0
cpu0->LLC PREFETCH REQUESTED:          0 ISSUED:          0 USEFUL:          0 USELESS:          0
cpu0->LLC AVERAGE MISS LATENCY: 227.9 cycles

DRAM Statistics

Channel 0 RQ ROW_BUFFER_HIT:       3528
  ROW_BUFFER_MISS:     182290
  AVG DBUS CONGESTED CYCLE: 11.02
Channel 0 WQ ROW_BUFFER_HIT:      22895
  ROW_BUFFER_MISS:      65454
  FULL:          0
Channel 0 REFRESHES ISSUED:       4518
