[VMEM] WARNING: physical memory size is smaller than virtual memory size.

*** ChampSim Multicore Out-of-Order Simulator ***
Warmup Instructions: 50000000
Simulation Instructions: 100000000
Number of CPUs: 1
Page size: 4096

Off-chip DRAM Size: 16 GiB Channels: 1 Width: 64-bit Data Rate: 3205 MT/s
Heartbeat CPU 0 instructions: 10000002 cycles: 2675585 heartbeat IPC: 3.738 cumulative IPC: 3.738 (Simulation time: 00 hr 00 min 51 sec)
Heartbeat CPU 0 instructions: 20000004 cycles: 5355960 heartbeat IPC: 3.731 cumulative IPC: 3.734 (Simulation time: 00 hr 01 min 41 sec)
Heartbeat CPU 0 instructions: 30000004 cycles: 8081763 heartbeat IPC: 3.669 cumulative IPC: 3.712 (Simulation time: 00 hr 02 min 32 sec)
Heartbeat CPU 0 instructions: 40000005 cycles: 10803289 heartbeat IPC: 3.674 cumulative IPC: 3.703 (Simulation time: 00 hr 03 min 23 sec)
Warmup finished CPU 0 instructions: 50000001 cycles: 13518189 cumulative IPC: 3.699 (Simulation time: 00 hr 04 min 13 sec)
Warmup complete CPU 0 instructions: 50000001 cycles: 13518189 cumulative IPC: 3.699 (Simulation time: 00 hr 04 min 13 sec)
Heartbeat CPU 0 instructions: 50000006 cycles: 13518190 heartbeat IPC: 3.683 cumulative IPC: 5 (Simulation time: 00 hr 04 min 13 sec)
Heartbeat CPU 0 instructions: 60000009 cycles: 23339122 heartbeat IPC: 1.018 cumulative IPC: 1.018 (Simulation time: 00 hr 06 min 28 sec)
Heartbeat CPU 0 instructions: 70000011 cycles: 33142385 heartbeat IPC: 1.02 cumulative IPC: 1.019 (Simulation time: 00 hr 08 min 46 sec)
Heartbeat CPU 0 instructions: 80000012 cycles: 42969059 heartbeat IPC: 1.018 cumulative IPC: 1.019 (Simulation time: 00 hr 11 min 01 sec)
Heartbeat CPU 0 instructions: 90000014 cycles: 64065795 heartbeat IPC: 0.474 cumulative IPC: 0.7913 (Simulation time: 00 hr 15 min 09 sec)
Heartbeat CPU 0 instructions: 100000015 cycles: 87113451 heartbeat IPC: 0.4339 cumulative IPC: 0.6794 (Simulation time: 00 hr 19 min 11 sec)
Heartbeat CPU 0 instructions: 110000017 cycles: 108673408 heartbeat IPC: 0.4638 cumulative IPC: 0.6305 (Simulation time: 00 hr 21 min 39 sec)
Heartbeat CPU 0 instructions: 120000019 cycles: 121401657 heartbeat IPC: 0.7857 cumulative IPC: 0.6488 (Simulation time: 00 hr 23 min 04 sec)
Heartbeat CPU 0 instructions: 130000021 cycles: 134058900 heartbeat IPC: 0.7901 cumulative IPC: 0.6637 (Simulation time: 00 hr 24 min 52 sec)
Heartbeat CPU 0 instructions: 140000023 cycles: 146715668 heartbeat IPC: 0.7901 cumulative IPC: 0.6757 (Simulation time: 00 hr 26 min 12 sec)
Simulation finished CPU 0 instructions: 100000000 cycles: 145510540 cumulative IPC: 0.6872 (Simulation time: 00 hr 27 min 22 sec)
Simulation complete CPU 0 instructions: 100000000 cycles: 145510540 cumulative IPC: 0.6872 (Simulation time: 00 hr 27 min 22 sec)

ChampSim completed all CPUs

=== Simulation ===
CPU 0 runs /home/zevs_gromovergec/Programming/Interview/Sber/Programming_modulating/ChampSim/tracers/437.leslie3d-273B.champsimtrace.xz

Region of Interest Statistics

CPU 0 cumulative IPC: 0.6872 instructions: 100000000 cycles: 145510540
CPU 0 Branch Prediction Accuracy: 99.19% MPKI: 0.1548 Average ROB Occupancy at Mispredict: 335.8
Branch type MPKI
BRANCH_DIRECT_JUMP: 6e-05
BRANCH_INDIRECT: 0
BRANCH_CONDITIONAL: 0.1547
BRANCH_DIRECT_CALL: 0
BRANCH_INDIRECT_CALL: 0
BRANCH_RETURN: 1e-05

cpu0->cpu0_STLB TOTAL        ACCESS:      14229 HIT:        500 MISS:      13729 MSHR_MERGE:          0
cpu0->cpu0_STLB LOAD         ACCESS:      14229 HIT:        500 MISS:      13729 MSHR_MERGE:          0
cpu0->cpu0_STLB RFO          ACCESS:          0 HIT:          0 MISS:          0 MSHR_MERGE:          0
cpu0->cpu0_STLB PREFETCH     ACCESS:          0 HIT:          0 MISS:          0 MSHR_MERGE:          0
cpu0->cpu0_STLB WRITE        ACCESS:          0 HIT:          0 MISS:          0 MSHR_MERGE:          0
cpu0->cpu0_STLB TRANSLATION  ACCESS:          0 HIT:          0 MISS:          0 MSHR_MERGE:          0
cpu0->cpu0_STLB PREFETCH REQUESTED:          0 ISSUED:          0 USEFUL:          0 USELESS:          0
cpu0->cpu0_STLB AVERAGE MISS LATENCY: 473.9 cycles
cpu0->cpu0_L2C TOTAL        ACCESS:    1162954 HIT:     289360 MISS:     873594 MSHR_MERGE:          0
cpu0->cpu0_L2C LOAD         ACCESS:     606635 HIT:      13372 MISS:     593263 MSHR_MERGE:          0
cpu0->cpu0_L2C RFO          ACCESS:     268539 HIT:       3982 MISS:     264557 MSHR_MERGE:          0
cpu0->cpu0_L2C PREFETCH     ACCESS:          0 HIT:          0 MISS:          0 MSHR_MERGE:          0
cpu0->cpu0_L2C WRITE        ACCESS:     271823 HIT:     271822 MISS:          1 MSHR_MERGE:          0
cpu0->cpu0_L2C TRANSLATION  ACCESS:      15957 HIT:        184 MISS:      15773 MSHR_MERGE:          0
cpu0->cpu0_L2C PREFETCH REQUESTED:          0 ISSUED:          0 USEFUL:          0 USELESS:          0
cpu0->cpu0_L2C AVERAGE MISS LATENCY: 225.2 cycles
cpu0->cpu0_L1I TOTAL        ACCESS:   21520068 HIT:   21519911 MISS:        157 MSHR_MERGE:         69
cpu0->cpu0_L1I LOAD         ACCESS:   21520068 HIT:   21519911 MISS:        157 MSHR_MERGE:         69
cpu0->cpu0_L1I RFO          ACCESS:          0 HIT:          0 MISS:          0 MSHR_MERGE:          0
cpu0->cpu0_L1I PREFETCH     ACCESS:          0 HIT:          0 MISS:          0 MSHR_MERGE:          0
cpu0->cpu0_L1I WRITE        ACCESS:          0 HIT:          0 MISS:          0 MSHR_MERGE:          0
cpu0->cpu0_L1I TRANSLATION  ACCESS:          0 HIT:          0 MISS:          0 MSHR_MERGE:          0
cpu0->cpu0_L1I PREFETCH REQUESTED:          0 ISSUED:          0 USEFUL:          0 USELESS:          0
cpu0->cpu0_L1I AVERAGE MISS LATENCY: 224.7 cycles
cpu0->cpu0_L1D TOTAL        ACCESS:   35841433 HIT:   33383662 MISS:    2457771 MSHR_MERGE:    1566728
cpu0->cpu0_L1D LOAD         ACCESS:   33597613 HIT:   32645881 MISS:     951732 MSHR_MERGE:     345185
cpu0->cpu0_L1D RFO          ACCESS:          0 HIT:          0 MISS:          0 MSHR_MERGE:          0
cpu0->cpu0_L1D PREFETCH     ACCESS:          0 HIT:          0 MISS:          0 MSHR_MERGE:          0
cpu0->cpu0_L1D WRITE        ACCESS:    2216348 HIT:     726271 MISS:    1490077 MSHR_MERGE:    1221538
cpu0->cpu0_L1D TRANSLATION  ACCESS:      27472 HIT:      11510 MISS:      15962 MSHR_MERGE:          5
cpu0->cpu0_L1D PREFETCH REQUESTED:          0 ISSUED:          0 USEFUL:          0 USELESS:          0
cpu0->cpu0_L1D AVERAGE MISS LATENCY: 229.7 cycles
cpu0->cpu0_ITLB TOTAL        ACCESS:   17942446 HIT:   17942439 MISS:          7 MSHR_MERGE:          5
cpu0->cpu0_ITLB LOAD         ACCESS:   17942446 HIT:   17942439 MISS:          7 MSHR_MERGE:          5
cpu0->cpu0_ITLB RFO          ACCESS:          0 HIT:          0 MISS:          0 MSHR_MERGE:          0
cpu0->cpu0_ITLB PREFETCH     ACCESS:          0 HIT:          0 MISS:          0 MSHR_MERGE:          0
cpu0->cpu0_ITLB WRITE        ACCESS:          0 HIT:          0 MISS:          0 MSHR_MERGE:          0
cpu0->cpu0_ITLB TRANSLATION  ACCESS:          0 HIT:          0 MISS:          0 MSHR_MERGE:          0
cpu0->cpu0_ITLB PREFETCH REQUESTED:          0 ISSUED:          0 USEFUL:          0 USELESS:          0
cpu0->cpu0_ITLB AVERAGE MISS LATENCY: 884 cycles
cpu0->cpu0_DTLB TOTAL        ACCESS:   34517772 HIT:   34453934 MISS:      63838 MSHR_MERGE:      49611
cpu0->cpu0_DTLB LOAD         ACCESS:   34517772 HIT:   34453934 MISS:      63838 MSHR_MERGE:      49611
cpu0->cpu0_DTLB RFO          ACCESS:          0 HIT:          0 MISS:          0 MSHR_MERGE:          0
cpu0->cpu0_DTLB PREFETCH     ACCESS:          0 HIT:          0 MISS:          0 MSHR_MERGE:          0
cpu0->cpu0_DTLB WRITE        ACCESS:          0 HIT:          0 MISS:          0 MSHR_MERGE:          0
cpu0->cpu0_DTLB TRANSLATION  ACCESS:          0 HIT:          0 MISS:          0 MSHR_MERGE:          0
cpu0->cpu0_DTLB PREFETCH REQUESTED:          0 ISSUED:          0 USEFUL:          0 USELESS:          0
cpu0->cpu0_DTLB AVERAGE MISS LATENCY: 463.1 cycles
cpu0->LLC TOTAL        ACCESS:    1140676 HIT:     267109 MISS:     873567 MSHR_MERGE:          0
cpu0->LLC LOAD         ACCESS:     593263 HIT:         21 MISS:     593242 MSHR_MERGE:          0
cpu0->LLC RFO          ACCESS:     264557 HIT:          6 MISS:     264551 MSHR_MERGE:          0
cpu0->LLC PREFETCH     ACCESS:          0 HIT:          0 MISS:          0 MSHR_MERGE:          0
cpu0->LLC WRITE        ACCESS:     267083 HIT:     267081 MISS:          2 MSHR_MERGE:          0
cpu0->LLC TRANSLATION  ACCESS:      15773 HIT:          1 MISS:      15772 MSHR_MERGE:          0
cpu0->LLC PREFETCH REQUESTED:          0 ISSUED:          0 USEFUL:          0 USELESS:          0
cpu0->LLC AVERAGE MISS LATENCY: 209.2 cycles

DRAM Statistics

Channel 0 RQ ROW_BUFFER_HIT:         99
  ROW_BUFFER_MISS:     873466
  AVG DBUS CONGESTED CYCLE: 11.54
Channel 0 WQ ROW_BUFFER_HIT:     103882
  ROW_BUFFER_MISS:     171800
  FULL:          0
Channel 0 REFRESHES ISSUED:      12126
