[VMEM] WARNING: physical memory size is smaller than virtual memory size.

*** ChampSim Multicore Out-of-Order Simulator ***
Warmup Instructions: 50000000
Simulation Instructions: 100000000
Number of CPUs: 1
Page size: 4096

Off-chip DRAM Size: 16 GiB Channels: 1 Width: 64-bit Data Rate: 3205 MT/s
Heartbeat CPU 0 instructions: 10000001 cycles: 2675844 heartbeat IPC: 3.737 cumulative IPC: 3.737 (Simulation time: 00 hr 00 min 46 sec)
Heartbeat CPU 0 instructions: 20000004 cycles: 5356510 heartbeat IPC: 3.73 cumulative IPC: 3.734 (Simulation time: 00 hr 01 min 24 sec)
Heartbeat CPU 0 instructions: 30000004 cycles: 8082313 heartbeat IPC: 3.669 cumulative IPC: 3.712 (Simulation time: 00 hr 01 min 55 sec)
Heartbeat CPU 0 instructions: 40000005 cycles: 10803839 heartbeat IPC: 3.674 cumulative IPC: 3.702 (Simulation time: 00 hr 02 min 38 sec)
Warmup finished CPU 0 instructions: 50000001 cycles: 13518739 cumulative IPC: 3.699 (Simulation time: 00 hr 03 min 28 sec)
Warmup complete CPU 0 instructions: 50000001 cycles: 13518739 cumulative IPC: 3.699 (Simulation time: 00 hr 03 min 28 sec)
Heartbeat CPU 0 instructions: 50000006 cycles: 13518740 heartbeat IPC: 3.683 cumulative IPC: 5 (Simulation time: 00 hr 03 min 28 sec)
Heartbeat CPU 0 instructions: 60000009 cycles: 23337703 heartbeat IPC: 1.018 cumulative IPC: 1.018 (Simulation time: 00 hr 05 min 06 sec)
Heartbeat CPU 0 instructions: 70000011 cycles: 33145177 heartbeat IPC: 1.02 cumulative IPC: 1.019 (Simulation time: 00 hr 07 min 04 sec)
Heartbeat CPU 0 instructions: 80000012 cycles: 42976036 heartbeat IPC: 1.017 cumulative IPC: 1.018 (Simulation time: 00 hr 08 min 52 sec)
Heartbeat CPU 0 instructions: 90000014 cycles: 64049993 heartbeat IPC: 0.4745 cumulative IPC: 0.7916 (Simulation time: 00 hr 11 min 05 sec)
Heartbeat CPU 0 instructions: 100000015 cycles: 87085458 heartbeat IPC: 0.4341 cumulative IPC: 0.6797 (Simulation time: 00 hr 13 min 14 sec)
Heartbeat CPU 0 instructions: 110000017 cycles: 108621051 heartbeat IPC: 0.4643 cumulative IPC: 0.6309 (Simulation time: 00 hr 14 min 57 sec)
Heartbeat CPU 0 instructions: 120000019 cycles: 121350901 heartbeat IPC: 0.7856 cumulative IPC: 0.6492 (Simulation time: 00 hr 15 min 54 sec)
Heartbeat CPU 0 instructions: 130000021 cycles: 134005381 heartbeat IPC: 0.7902 cumulative IPC: 0.664 (Simulation time: 00 hr 16 min 50 sec)
Heartbeat CPU 0 instructions: 140000023 cycles: 146639658 heartbeat IPC: 0.7915 cumulative IPC: 0.6761 (Simulation time: 00 hr 17 min 47 sec)
Simulation finished CPU 0 instructions: 100000000 cycles: 145499481 cumulative IPC: 0.6873 (Simulation time: 00 hr 18 min 43 sec)
Simulation complete CPU 0 instructions: 100000000 cycles: 145499481 cumulative IPC: 0.6873 (Simulation time: 00 hr 18 min 43 sec)

ChampSim completed all CPUs

=== Simulation ===
CPU 0 runs /home/zevs_gromovergec/Programming/Interview/Sber/Programming_modulating/ChampSim/tracers/437.leslie3d-273B.champsimtrace.xz

Region of Interest Statistics

CPU 0 cumulative IPC: 0.6873 instructions: 100000000 cycles: 145499481
CPU 0 Branch Prediction Accuracy: 99.19% MPKI: 0.1548 Average ROB Occupancy at Mispredict: 335.8
Branch type MPKI
BRANCH_DIRECT_JUMP: 6e-05
BRANCH_INDIRECT: 0
BRANCH_CONDITIONAL: 0.1547
BRANCH_DIRECT_CALL: 0
BRANCH_INDIRECT_CALL: 0
BRANCH_RETURN: 1e-05

cpu0->cpu0_STLB TOTAL        ACCESS:      14228 HIT:        499 MISS:      13729 MSHR_MERGE:          0
cpu0->cpu0_STLB LOAD         ACCESS:      14228 HIT:        499 MISS:      13729 MSHR_MERGE:          0
cpu0->cpu0_STLB RFO          ACCESS:          0 HIT:          0 MISS:          0 MSHR_MERGE:          0
cpu0->cpu0_STLB PREFETCH     ACCESS:          0 HIT:          0 MISS:          0 MSHR_MERGE:          0
cpu0->cpu0_STLB WRITE        ACCESS:          0 HIT:          0 MISS:          0 MSHR_MERGE:          0
cpu0->cpu0_STLB TRANSLATION  ACCESS:          0 HIT:          0 MISS:          0 MSHR_MERGE:          0
cpu0->cpu0_STLB PREFETCH REQUESTED:          0 ISSUED:          0 USEFUL:          0 USELESS:          0
cpu0->cpu0_STLB AVERAGE MISS LATENCY: 472.6 cycles
cpu0->cpu0_L2C TOTAL        ACCESS:    1162302 HIT:      26894 MISS:    1135408 MSHR_MERGE:          0
cpu0->cpu0_L2C LOAD         ACCESS:     605988 HIT:       4844 MISS:     601144 MSHR_MERGE:          0
cpu0->cpu0_L2C RFO          ACCESS:     268539 HIT:       4880 MISS:     263659 MSHR_MERGE:          0
cpu0->cpu0_L2C PREFETCH     ACCESS:          0 HIT:          0 MISS:          0 MSHR_MERGE:          0
cpu0->cpu0_L2C WRITE        ACCESS:     271822 HIT:      17131 MISS:     254691 MSHR_MERGE:          0
cpu0->cpu0_L2C TRANSLATION  ACCESS:      15953 HIT:         39 MISS:      15914 MSHR_MERGE:          0
cpu0->cpu0_L2C PREFETCH REQUESTED:          0 ISSUED:          0 USEFUL:          0 USELESS:          0
cpu0->cpu0_L2C AVERAGE MISS LATENCY: 173.8 cycles
cpu0->cpu0_L1I TOTAL        ACCESS:   21519441 HIT:   21519281 MISS:        160 MSHR_MERGE:         72
cpu0->cpu0_L1I LOAD         ACCESS:   21519441 HIT:   21519281 MISS:        160 MSHR_MERGE:         72
cpu0->cpu0_L1I RFO          ACCESS:          0 HIT:          0 MISS:          0 MSHR_MERGE:          0
cpu0->cpu0_L1I PREFETCH     ACCESS:          0 HIT:          0 MISS:          0 MSHR_MERGE:          0
cpu0->cpu0_L1I WRITE        ACCESS:          0 HIT:          0 MISS:          0 MSHR_MERGE:          0
cpu0->cpu0_L1I TRANSLATION  ACCESS:          0 HIT:          0 MISS:          0 MSHR_MERGE:          0
cpu0->cpu0_L1I PREFETCH REQUESTED:          0 ISSUED:          0 USEFUL:          0 USELESS:          0
cpu0->cpu0_L1I AVERAGE MISS LATENCY: 309.3 cycles
cpu0->cpu0_L1D TOTAL        ACCESS:   35841674 HIT:   33388802 MISS:    2452872 MSHR_MERGE:    1562480
cpu0->cpu0_L1D LOAD         ACCESS:   33597854 HIT:   32645991 MISS:     951863 MSHR_MERGE:     345963
cpu0->cpu0_L1D RFO          ACCESS:          0 HIT:          0 MISS:          0 MSHR_MERGE:          0
cpu0->cpu0_L1D PREFETCH     ACCESS:          0 HIT:          0 MISS:          0 MSHR_MERGE:          0
cpu0->cpu0_L1D WRITE        ACCESS:    2216348 HIT:     731297 MISS:    1485051 MSHR_MERGE:    1216512
cpu0->cpu0_L1D TRANSLATION  ACCESS:      27472 HIT:      11514 MISS:      15958 MSHR_MERGE:          5
cpu0->cpu0_L1D PREFETCH REQUESTED:          0 ISSUED:          0 USEFUL:          0 USELESS:          0
cpu0->cpu0_L1D AVERAGE MISS LATENCY: 229.5 cycles
cpu0->cpu0_ITLB TOTAL        ACCESS:   17940833 HIT:   17940826 MISS:          7 MSHR_MERGE:          5
cpu0->cpu0_ITLB LOAD         ACCESS:   17940833 HIT:   17940826 MISS:          7 MSHR_MERGE:          5
cpu0->cpu0_ITLB RFO          ACCESS:          0 HIT:          0 MISS:          0 MSHR_MERGE:          0
cpu0->cpu0_ITLB PREFETCH     ACCESS:          0 HIT:          0 MISS:          0 MSHR_MERGE:          0
cpu0->cpu0_ITLB WRITE        ACCESS:          0 HIT:          0 MISS:          0 MSHR_MERGE:          0
cpu0->cpu0_ITLB TRANSLATION  ACCESS:          0 HIT:          0 MISS:          0 MSHR_MERGE:          0
cpu0->cpu0_ITLB PREFETCH REQUESTED:          0 ISSUED:          0 USEFUL:          0 USELESS:          0
cpu0->cpu0_ITLB AVERAGE MISS LATENCY: 886 cycles
cpu0->cpu0_DTLB TOTAL        ACCESS:   34517799 HIT:   34453864 MISS:      63935 MSHR_MERGE:      49709
cpu0->cpu0_DTLB LOAD         ACCESS:   34517799 HIT:   34453864 MISS:      63935 MSHR_MERGE:      49709
cpu0->cpu0_DTLB RFO          ACCESS:          0 HIT:          0 MISS:          0 MSHR_MERGE:          0
cpu0->cpu0_DTLB PREFETCH     ACCESS:          0 HIT:          0 MISS:          0 MSHR_MERGE:          0
cpu0->cpu0_DTLB WRITE        ACCESS:          0 HIT:          0 MISS:          0 MSHR_MERGE:          0
cpu0->cpu0_DTLB TRANSLATION  ACCESS:          0 HIT:          0 MISS:          0 MSHR_MERGE:          0
cpu0->cpu0_DTLB PREFETCH REQUESTED:          0 ISSUED:          0 USEFUL:          0 USELESS:          0
cpu0->cpu0_DTLB AVERAGE MISS LATENCY: 461.9 cycles
cpu0->LLC TOTAL        ACCESS:    1145829 HIT:     274113 MISS:     871716 MSHR_MERGE:          0
cpu0->LLC LOAD         ACCESS:     601144 HIT:       8931 MISS:     592213 MSHR_MERGE:          0
cpu0->LLC RFO          ACCESS:     263659 HIT:        289 MISS:     263370 MSHR_MERGE:          0
cpu0->LLC PREFETCH     ACCESS:          0 HIT:          0 MISS:          0 MSHR_MERGE:          0
cpu0->LLC WRITE        ACCESS:     265112 HIT:     264711 MISS:        401 MSHR_MERGE:          0
cpu0->LLC TRANSLATION  ACCESS:      15914 HIT:        182 MISS:      15732 MSHR_MERGE:          0
cpu0->LLC PREFETCH REQUESTED:          0 ISSUED:          0 USEFUL:          0 USELESS:          0
cpu0->LLC AVERAGE MISS LATENCY: 209.1 cycles

DRAM Statistics

Channel 0 RQ ROW_BUFFER_HIT:         87
  ROW_BUFFER_MISS:     871228
  AVG DBUS CONGESTED CYCLE: 11.55
Channel 0 WQ ROW_BUFFER_HIT:     102795
  ROW_BUFFER_MISS:     172045
  FULL:          0
Channel 0 REFRESHES ISSUED:      12125
