[VMEM] WARNING: physical memory size is smaller than virtual memory size.

*** ChampSim Multicore Out-of-Order Simulator ***
Warmup Instructions: 50000000
Simulation Instructions: 100000000
Number of CPUs: 1
Page size: 4096

Initialize SIGNATURE TABLE
ST_SET: 1
ST_WAY: 256
ST_TAG_BIT: 16

Initialize PATTERN TABLE
PT_SET: 512
PT_WAY: 4
SIG_DELTA_BIT: 7
C_SIG_BIT: 4
C_DELTA_BIT: 4

Initialize PREFETCH FILTER
FILTER_SET: 1024
Off-chip DRAM Size: 16 GiB Channels: 1 Width: 64-bit Data Rate: 3205 MT/s
Heartbeat CPU 0 instructions: 10000000 cycles: 2675830 heartbeat IPC: 3.737 cumulative IPC: 3.737 (Simulation time: 00 hr 00 min 33 sec)
Heartbeat CPU 0 instructions: 20000000 cycles: 5356417 heartbeat IPC: 3.731 cumulative IPC: 3.734 (Simulation time: 00 hr 01 min 06 sec)
Heartbeat CPU 0 instructions: 30000001 cycles: 8082334 heartbeat IPC: 3.668 cumulative IPC: 3.712 (Simulation time: 00 hr 01 min 39 sec)
Heartbeat CPU 0 instructions: 40000003 cycles: 10803905 heartbeat IPC: 3.674 cumulative IPC: 3.702 (Simulation time: 00 hr 02 min 12 sec)
Warmup finished CPU 0 instructions: 50000001 cycles: 13518881 cumulative IPC: 3.699 (Simulation time: 00 hr 02 min 45 sec)
Warmup complete CPU 0 instructions: 50000001 cycles: 13518881 cumulative IPC: 3.699 (Simulation time: 00 hr 02 min 45 sec)
Heartbeat CPU 0 instructions: 50000006 cycles: 13518882 heartbeat IPC: 3.683 cumulative IPC: 5 (Simulation time: 00 hr 02 min 45 sec)
Heartbeat CPU 0 instructions: 60000009 cycles: 18221972 heartbeat IPC: 2.126 cumulative IPC: 2.126 (Simulation time: 00 hr 03 min 44 sec)
Heartbeat CPU 0 instructions: 70000011 cycles: 22932723 heartbeat IPC: 2.123 cumulative IPC: 2.125 (Simulation time: 00 hr 05 min 03 sec)
Heartbeat CPU 0 instructions: 80000012 cycles: 27661249 heartbeat IPC: 2.115 cumulative IPC: 2.121 (Simulation time: 00 hr 06 min 23 sec)
Heartbeat CPU 0 instructions: 90000012 cycles: 32971248 heartbeat IPC: 1.883 cumulative IPC: 2.056 (Simulation time: 00 hr 07 min 49 sec)
Heartbeat CPU 0 instructions: 100000015 cycles: 38303641 heartbeat IPC: 1.875 cumulative IPC: 2.017 (Simulation time: 00 hr 09 min 15 sec)
Heartbeat CPU 0 instructions: 110000017 cycles: 43663371 heartbeat IPC: 1.866 cumulative IPC: 1.99 (Simulation time: 00 hr 10 min 41 sec)
Heartbeat CPU 0 instructions: 120000019 cycles: 49142890 heartbeat IPC: 1.825 cumulative IPC: 1.965 (Simulation time: 00 hr 11 min 56 sec)
Heartbeat CPU 0 instructions: 130000021 cycles: 54616300 heartbeat IPC: 1.827 cumulative IPC: 1.947 (Simulation time: 00 hr 13 min 22 sec)
Heartbeat CPU 0 instructions: 140000023 cycles: 60113916 heartbeat IPC: 1.819 cumulative IPC: 1.932 (Simulation time: 00 hr 14 min 34 sec)
Simulation finished CPU 0 instructions: 100000004 cycles: 52040056 cumulative IPC: 1.922 (Simulation time: 00 hr 15 min 57 sec)
Simulation complete CPU 0 instructions: 100000004 cycles: 52040056 cumulative IPC: 1.922 (Simulation time: 00 hr 15 min 57 sec)

ChampSim completed all CPUs

=== Simulation ===
CPU 0 runs /home/zevs_gromovergec/Programming/Interview/Sber/Programming_modulating/ChampSim/tracers/437.leslie3d-273B.champsimtrace.xz

Region of Interest Statistics

CPU 0 cumulative IPC: 1.922 instructions: 100000004 cycles: 52040056
CPU 0 Branch Prediction Accuracy: 99.19% MPKI: 0.1548 Average ROB Occupancy at Mispredict: 335.9
Branch type MPKI
BRANCH_DIRECT_JUMP: 6e-05
BRANCH_INDIRECT: 0
BRANCH_CONDITIONAL: 0.1547
BRANCH_DIRECT_CALL: 0
BRANCH_INDIRECT_CALL: 0
BRANCH_RETURN: 1e-05

cpu0->cpu0_STLB TOTAL        ACCESS:      14227 HIT:        498 MISS:      13729 MSHR_MERGE:          0
cpu0->cpu0_STLB LOAD         ACCESS:      14227 HIT:        498 MISS:      13729 MSHR_MERGE:          0
cpu0->cpu0_STLB RFO          ACCESS:          0 HIT:          0 MISS:          0 MSHR_MERGE:          0
cpu0->cpu0_STLB PREFETCH     ACCESS:          0 HIT:          0 MISS:          0 MSHR_MERGE:          0
cpu0->cpu0_STLB WRITE        ACCESS:          0 HIT:          0 MISS:          0 MSHR_MERGE:          0
cpu0->cpu0_STLB TRANSLATION  ACCESS:          0 HIT:          0 MISS:          0 MSHR_MERGE:          0
cpu0->cpu0_STLB PREFETCH REQUESTED:          0 ISSUED:          0 USEFUL:          0 USELESS:          0
cpu0->cpu0_STLB AVERAGE MISS LATENCY: 499.9 cycles
cpu0->cpu0_L2C TOTAL        ACCESS:    6345586 HIT:     461594 MISS:    5883992 MSHR_MERGE:       2509
cpu0->cpu0_L2C LOAD         ACCESS:     606235 HIT:     392245 MISS:     213990 MSHR_MERGE:       2100
cpu0->cpu0_L2C RFO          ACCESS:     268538 HIT:       3860 MISS:     264678 MSHR_MERGE:          0
cpu0->cpu0_L2C PREFETCH     ACCESS:    5183039 HIT:      14185 MISS:    5168854 MSHR_MERGE:        409
cpu0->cpu0_L2C WRITE        ACCESS:     271817 HIT:      51290 MISS:     220527 MSHR_MERGE:          0
cpu0->cpu0_L2C TRANSLATION  ACCESS:      15957 HIT:         14 MISS:      15943 MSHR_MERGE:          0
cpu0->cpu0_L2C PREFETCH REQUESTED:    6761317 ISSUED:    5183039 USEFUL:     386626 USELESS:      46625
cpu0->cpu0_L2C AVERAGE MISS LATENCY: 115.4 cycles
cpu0->cpu0_L1I TOTAL        ACCESS:   21313445 HIT:   21313289 MISS:        156 MSHR_MERGE:         68
cpu0->cpu0_L1I LOAD         ACCESS:   21313445 HIT:   21313289 MISS:        156 MSHR_MERGE:         68
cpu0->cpu0_L1I RFO          ACCESS:          0 HIT:          0 MISS:          0 MSHR_MERGE:          0
cpu0->cpu0_L1I PREFETCH     ACCESS:          0 HIT:          0 MISS:          0 MSHR_MERGE:          0
cpu0->cpu0_L1I WRITE        ACCESS:          0 HIT:          0 MISS:          0 MSHR_MERGE:          0
cpu0->cpu0_L1I TRANSLATION  ACCESS:          0 HIT:          0 MISS:          0 MSHR_MERGE:          0
cpu0->cpu0_L1I PREFETCH REQUESTED:          0 ISSUED:          0 USEFUL:          0 USELESS:          0
cpu0->cpu0_L1I AVERAGE MISS LATENCY: 168.7 cycles
cpu0->cpu0_L1D TOTAL        ACCESS:   35954953 HIT:   33286277 MISS:    2668676 MSHR_MERGE:    1778033
cpu0->cpu0_L1D LOAD         ACCESS:   33711133 HIT:   32917364 MISS:     793769 MSHR_MERGE:     187622
cpu0->cpu0_L1D RFO          ACCESS:          0 HIT:          0 MISS:          0 MSHR_MERGE:          0
cpu0->cpu0_L1D PREFETCH     ACCESS:          0 HIT:          0 MISS:          0 MSHR_MERGE:          0
cpu0->cpu0_L1D WRITE        ACCESS:    2216348 HIT:     357402 MISS:    1858946 MSHR_MERGE:    1590407
cpu0->cpu0_L1D TRANSLATION  ACCESS:      27472 HIT:      11511 MISS:      15961 MSHR_MERGE:          4
cpu0->cpu0_L1D PREFETCH REQUESTED:          0 ISSUED:          0 USEFUL:          0 USELESS:          0
cpu0->cpu0_L1D AVERAGE MISS LATENCY: 100.3 cycles
cpu0->cpu0_ITLB TOTAL        ACCESS:   17762371 HIT:   17762364 MISS:          7 MSHR_MERGE:          5
cpu0->cpu0_ITLB LOAD         ACCESS:   17762371 HIT:   17762364 MISS:          7 MSHR_MERGE:          5
cpu0->cpu0_ITLB RFO          ACCESS:          0 HIT:          0 MISS:          0 MSHR_MERGE:          0
cpu0->cpu0_ITLB PREFETCH     ACCESS:          0 HIT:          0 MISS:          0 MSHR_MERGE:          0
cpu0->cpu0_ITLB WRITE        ACCESS:          0 HIT:          0 MISS:          0 MSHR_MERGE:          0
cpu0->cpu0_ITLB TRANSLATION  ACCESS:          0 HIT:          0 MISS:          0 MSHR_MERGE:          0
cpu0->cpu0_ITLB PREFETCH REQUESTED:          0 ISSUED:          0 USEFUL:          0 USELESS:          0
cpu0->cpu0_ITLB AVERAGE MISS LATENCY: 1177 cycles
cpu0->cpu0_DTLB TOTAL        ACCESS:   34603994 HIT:   34529111 MISS:      74883 MSHR_MERGE:      60658
cpu0->cpu0_DTLB LOAD         ACCESS:   34603994 HIT:   34529111 MISS:      74883 MSHR_MERGE:      60658
cpu0->cpu0_DTLB RFO          ACCESS:          0 HIT:          0 MISS:          0 MSHR_MERGE:          0
cpu0->cpu0_DTLB PREFETCH     ACCESS:          0 HIT:          0 MISS:          0 MSHR_MERGE:          0
cpu0->cpu0_DTLB WRITE        ACCESS:          0 HIT:          0 MISS:          0 MSHR_MERGE:          0
cpu0->cpu0_DTLB TRANSLATION  ACCESS:          0 HIT:          0 MISS:          0 MSHR_MERGE:          0
cpu0->cpu0_DTLB PREFETCH REQUESTED:          0 ISSUED:          0 USEFUL:          0 USELESS:          0
cpu0->cpu0_DTLB AVERAGE MISS LATENCY: 488.3 cycles
cpu0->LLC TOTAL        ACCESS:    5891109 HIT:    3943706 MISS:    1947403 MSHR_MERGE:    1071880
cpu0->LLC LOAD         ACCESS:     211890 HIT:     198257 MISS:      13633 MSHR_MERGE:        915
cpu0->LLC RFO          ACCESS:     264678 HIT:        398 MISS:     264280 MSHR_MERGE:          0
cpu0->LLC PREFETCH     ACCESS:    5133494 HIT:    3479777 MISS:    1653717 MSHR_MERGE:    1070965
cpu0->LLC WRITE        ACCESS:     265104 HIT:     265099 MISS:          5 MSHR_MERGE:          0
cpu0->LLC TRANSLATION  ACCESS:      15943 HIT:        175 MISS:      15768 MSHR_MERGE:          0
cpu0->LLC PREFETCH REQUESTED:          0 ISSUED:          0 USEFUL:          0 USELESS:          0
cpu0->LLC AVERAGE MISS LATENCY: 251 cycles

DRAM Statistics

Channel 0 RQ ROW_BUFFER_HIT:       5428
  ROW_BUFFER_MISS:     870088
  AVG DBUS CONGESTED CYCLE: 7.927
Channel 0 WQ ROW_BUFFER_HIT:      59117
  ROW_BUFFER_MISS:     216503
  FULL:          0
Channel 0 REFRESHES ISSUED:       4337
