[VMEM] WARNING: physical memory size is smaller than virtual memory size.

*** ChampSim Multicore Out-of-Order Simulator ***
Warmup Instructions: 50000000
Simulation Instructions: 100000000
Number of CPUs: 1
Page size: 4096

Off-chip DRAM Size: 16 GiB Channels: 1 Width: 64-bit Data Rate: 3205 MT/s
Heartbeat CPU 0 instructions: 10000002 cycles: 2675641 heartbeat IPC: 3.737 cumulative IPC: 3.737 (Simulation time: 00 hr 00 min 49 sec)
Heartbeat CPU 0 instructions: 20000004 cycles: 5356195 heartbeat IPC: 3.731 cumulative IPC: 3.734 (Simulation time: 00 hr 01 min 38 sec)
Heartbeat CPU 0 instructions: 30000004 cycles: 8082003 heartbeat IPC: 3.669 cumulative IPC: 3.712 (Simulation time: 00 hr 02 min 28 sec)
Heartbeat CPU 0 instructions: 40000005 cycles: 10803529 heartbeat IPC: 3.674 cumulative IPC: 3.702 (Simulation time: 00 hr 03 min 18 sec)
Warmup finished CPU 0 instructions: 50000001 cycles: 13518429 cumulative IPC: 3.699 (Simulation time: 00 hr 04 min 08 sec)
Warmup complete CPU 0 instructions: 50000001 cycles: 13518429 cumulative IPC: 3.699 (Simulation time: 00 hr 04 min 08 sec)
Heartbeat CPU 0 instructions: 50000006 cycles: 13518430 heartbeat IPC: 3.683 cumulative IPC: 5 (Simulation time: 00 hr 04 min 08 sec)
Heartbeat CPU 0 instructions: 60000009 cycles: 23332380 heartbeat IPC: 1.019 cumulative IPC: 1.019 (Simulation time: 00 hr 06 min 23 sec)
Heartbeat CPU 0 instructions: 70000011 cycles: 33129767 heartbeat IPC: 1.021 cumulative IPC: 1.02 (Simulation time: 00 hr 08 min 36 sec)
Heartbeat CPU 0 instructions: 80000012 cycles: 42966204 heartbeat IPC: 1.017 cumulative IPC: 1.019 (Simulation time: 00 hr 10 min 46 sec)
Heartbeat CPU 0 instructions: 90000014 cycles: 63891463 heartbeat IPC: 0.4779 cumulative IPC: 0.7941 (Simulation time: 00 hr 14 min 43 sec)
Heartbeat CPU 0 instructions: 100000015 cycles: 86777049 heartbeat IPC: 0.437 cumulative IPC: 0.6825 (Simulation time: 00 hr 18 min 57 sec)
Heartbeat CPU 0 instructions: 110000017 cycles: 108145256 heartbeat IPC: 0.468 cumulative IPC: 0.6341 (Simulation time: 00 hr 22 min 56 sec)
Heartbeat CPU 0 instructions: 120000019 cycles: 120863027 heartbeat IPC: 0.7863 cumulative IPC: 0.6521 (Simulation time: 00 hr 25 min 19 sec)
Heartbeat CPU 0 instructions: 130000021 cycles: 133520434 heartbeat IPC: 0.7901 cumulative IPC: 0.6667 (Simulation time: 00 hr 27 min 41 sec)
Heartbeat CPU 0 instructions: 140000023 cycles: 146004965 heartbeat IPC: 0.801 cumulative IPC: 0.6793 (Simulation time: 00 hr 30 min 02 sec)
Simulation finished CPU 0 instructions: 100000000 cycles: 144742804 cumulative IPC: 0.6909 (Simulation time: 00 hr 32 min 19 sec)
Simulation complete CPU 0 instructions: 100000000 cycles: 144742804 cumulative IPC: 0.6909 (Simulation time: 00 hr 32 min 19 sec)

ChampSim completed all CPUs

=== Simulation ===
CPU 0 runs /home/zevs_gromovergec/Programming/Interview/Sber/Programming_modulating/ChampSim/tracers/437.leslie3d-273B.champsimtrace.xz

Region of Interest Statistics

CPU 0 cumulative IPC: 0.6909 instructions: 100000000 cycles: 144742804
CPU 0 Branch Prediction Accuracy: 99.19% MPKI: 0.1548 Average ROB Occupancy at Mispredict: 335.8
Branch type MPKI
BRANCH_DIRECT_JUMP: 6e-05
BRANCH_INDIRECT: 0
BRANCH_CONDITIONAL: 0.1547
BRANCH_DIRECT_CALL: 0
BRANCH_INDIRECT_CALL: 0
BRANCH_RETURN: 1e-05

cpu0->cpu0_STLB TOTAL        ACCESS:      14228 HIT:        499 MISS:      13729 MSHR_MERGE:          0
cpu0->cpu0_STLB LOAD         ACCESS:      14228 HIT:        499 MISS:      13729 MSHR_MERGE:          0
cpu0->cpu0_STLB RFO          ACCESS:          0 HIT:          0 MISS:          0 MSHR_MERGE:          0
cpu0->cpu0_STLB PREFETCH     ACCESS:          0 HIT:          0 MISS:          0 MSHR_MERGE:          0
cpu0->cpu0_STLB WRITE        ACCESS:          0 HIT:          0 MISS:          0 MSHR_MERGE:          0
cpu0->cpu0_STLB TRANSLATION  ACCESS:          0 HIT:          0 MISS:          0 MSHR_MERGE:          0
cpu0->cpu0_STLB PREFETCH REQUESTED:          0 ISSUED:          0 USEFUL:          0 USELESS:          0
cpu0->cpu0_STLB AVERAGE MISS LATENCY: 469.8 cycles
cpu0->cpu0_L2C TOTAL        ACCESS:    1162521 HIT:     156795 MISS:    1005726 MSHR_MERGE:          0
cpu0->cpu0_L2C LOAD         ACCESS:     606208 HIT:      15295 MISS:     590913 MSHR_MERGE:          0
cpu0->cpu0_L2C RFO          ACCESS:     268538 HIT:      11200 MISS:     257338 MSHR_MERGE:          0
cpu0->cpu0_L2C PREFETCH     ACCESS:          0 HIT:          0 MISS:          0 MSHR_MERGE:          0
cpu0->cpu0_L2C WRITE        ACCESS:     271822 HIT:     130037 MISS:     141785 MSHR_MERGE:          0
cpu0->cpu0_L2C TRANSLATION  ACCESS:      15953 HIT:        263 MISS:      15690 MSHR_MERGE:          0
cpu0->cpu0_L2C PREFETCH REQUESTED:          0 ISSUED:          0 USEFUL:          0 USELESS:          0
cpu0->cpu0_L2C AVERAGE MISS LATENCY: 192.2 cycles
cpu0->cpu0_L1I TOTAL        ACCESS:   21516504 HIT:   21516346 MISS:        158 MSHR_MERGE:         70
cpu0->cpu0_L1I LOAD         ACCESS:   21516504 HIT:   21516346 MISS:        158 MSHR_MERGE:         70
cpu0->cpu0_L1I RFO          ACCESS:          0 HIT:          0 MISS:          0 MSHR_MERGE:          0
cpu0->cpu0_L1I PREFETCH     ACCESS:          0 HIT:          0 MISS:          0 MSHR_MERGE:          0
cpu0->cpu0_L1I WRITE        ACCESS:          0 HIT:          0 MISS:          0 MSHR_MERGE:          0
cpu0->cpu0_L1I TRANSLATION  ACCESS:          0 HIT:          0 MISS:          0 MSHR_MERGE:          0
cpu0->cpu0_L1I PREFETCH REQUESTED:          0 ISSUED:          0 USEFUL:          0 USELESS:          0
cpu0->cpu0_L1I AVERAGE MISS LATENCY: 228.8 cycles
cpu0->cpu0_L1D TOTAL        ACCESS:   35839975 HIT:   33423020 MISS:    2416955 MSHR_MERGE:    1526344
cpu0->cpu0_L1D LOAD         ACCESS:   33596155 HIT:   32644524 MISS:     951631 MSHR_MERGE:     345511
cpu0->cpu0_L1D RFO          ACCESS:          0 HIT:          0 MISS:          0 MSHR_MERGE:          0
cpu0->cpu0_L1D PREFETCH     ACCESS:          0 HIT:          0 MISS:          0 MSHR_MERGE:          0
cpu0->cpu0_L1D WRITE        ACCESS:    2216348 HIT:     766983 MISS:    1449365 MSHR_MERGE:    1180827
cpu0->cpu0_L1D TRANSLATION  ACCESS:      27472 HIT:      11513 MISS:      15959 MSHR_MERGE:          6
cpu0->cpu0_L1D PREFETCH REQUESTED:          0 ISSUED:          0 USEFUL:          0 USELESS:          0
cpu0->cpu0_L1D AVERAGE MISS LATENCY: 225.3 cycles
cpu0->cpu0_ITLB TOTAL        ACCESS:   17938396 HIT:   17938389 MISS:          7 MSHR_MERGE:          5
cpu0->cpu0_ITLB LOAD         ACCESS:   17938396 HIT:   17938389 MISS:          7 MSHR_MERGE:          5
cpu0->cpu0_ITLB RFO          ACCESS:          0 HIT:          0 MISS:          0 MSHR_MERGE:          0
cpu0->cpu0_ITLB PREFETCH     ACCESS:          0 HIT:          0 MISS:          0 MSHR_MERGE:          0
cpu0->cpu0_ITLB WRITE        ACCESS:          0 HIT:          0 MISS:          0 MSHR_MERGE:          0
cpu0->cpu0_ITLB TRANSLATION  ACCESS:          0 HIT:          0 MISS:          0 MSHR_MERGE:          0
cpu0->cpu0_ITLB PREFETCH REQUESTED:          0 ISSUED:          0 USEFUL:          0 USELESS:          0
cpu0->cpu0_ITLB AVERAGE MISS LATENCY: 876 cycles
cpu0->cpu0_DTLB TOTAL        ACCESS:   34516126 HIT:   34452556 MISS:      63570 MSHR_MERGE:      49344
cpu0->cpu0_DTLB LOAD         ACCESS:   34516126 HIT:   34452556 MISS:      63570 MSHR_MERGE:      49344
cpu0->cpu0_DTLB RFO          ACCESS:          0 HIT:          0 MISS:          0 MSHR_MERGE:          0
cpu0->cpu0_DTLB PREFETCH     ACCESS:          0 HIT:          0 MISS:          0 MSHR_MERGE:          0
cpu0->cpu0_DTLB WRITE        ACCESS:          0 HIT:          0 MISS:          0 MSHR_MERGE:          0
cpu0->cpu0_DTLB TRANSLATION  ACCESS:          0 HIT:          0 MISS:          0 MSHR_MERGE:          0
cpu0->cpu0_DTLB PREFETCH REQUESTED:          0 ISSUED:          0 USEFUL:          0 USELESS:          0
cpu0->cpu0_DTLB AVERAGE MISS LATENCY: 459.3 cycles
cpu0->LLC TOTAL        ACCESS:    1122829 HIT:     263002 MISS:     859827 MSHR_MERGE:          0
cpu0->LLC LOAD         ACCESS:     590913 HIT:       5073 MISS:     585840 MSHR_MERGE:          0
cpu0->LLC RFO          ACCESS:     257338 HIT:        136 MISS:     257202 MSHR_MERGE:          0
cpu0->LLC PREFETCH     ACCESS:          0 HIT:          0 MISS:          0 MSHR_MERGE:          0
cpu0->LLC WRITE        ACCESS:     258888 HIT:     257645 MISS:       1243 MSHR_MERGE:          0
cpu0->LLC TRANSLATION  ACCESS:      15690 HIT:        148 MISS:      15542 MSHR_MERGE:          0
cpu0->LLC PREFETCH REQUESTED:          0 ISSUED:          0 USEFUL:          0 USELESS:          0
cpu0->LLC AVERAGE MISS LATENCY: 208 cycles

DRAM Statistics

Channel 0 RQ ROW_BUFFER_HIT:        110
  ROW_BUFFER_MISS:     858474
  AVG DBUS CONGESTED CYCLE: 11.67
Channel 0 WQ ROW_BUFFER_HIT:     100614
  ROW_BUFFER_MISS:     168211
  FULL:          0
Channel 0 REFRESHES ISSUED:      12062
