[VMEM] WARNING: physical memory size is smaller than virtual memory size.

*** ChampSim Multicore Out-of-Order Simulator ***
Warmup Instructions: 50000000
Simulation Instructions: 100000000
Number of CPUs: 1
Page size: 4096

Off-chip DRAM Size: 16 GiB Channels: 1 Width: 64-bit Data Rate: 3205 MT/s
Heartbeat CPU 0 instructions: 10000000 cycles: 2558429 heartbeat IPC: 3.909 cumulative IPC: 3.909 (Simulation time: 00 hr 00 min 55 sec)
Heartbeat CPU 0 instructions: 20000003 cycles: 5147757 heartbeat IPC: 3.862 cumulative IPC: 3.885 (Simulation time: 00 hr 01 min 51 sec)
Heartbeat CPU 0 instructions: 30000005 cycles: 7661775 heartbeat IPC: 3.978 cumulative IPC: 3.916 (Simulation time: 00 hr 02 min 46 sec)
Heartbeat CPU 0 instructions: 40000005 cycles: 10177086 heartbeat IPC: 3.976 cumulative IPC: 3.93 (Simulation time: 00 hr 03 min 42 sec)
Warmup finished CPU 0 instructions: 50000000 cycles: 12680850 cumulative IPC: 3.943 (Simulation time: 00 hr 04 min 30 sec)
Warmup complete CPU 0 instructions: 50000000 cycles: 12680850 cumulative IPC: 3.943 (Simulation time: 00 hr 04 min 30 sec)
Heartbeat CPU 0 instructions: 50000005 cycles: 12680851 heartbeat IPC: 3.994 cumulative IPC: 5 (Simulation time: 00 hr 04 min 30 sec)
Heartbeat CPU 0 instructions: 60000009 cycles: 17392507 heartbeat IPC: 2.122 cumulative IPC: 2.122 (Simulation time: 00 hr 05 min 46 sec)
Heartbeat CPU 0 instructions: 70000010 cycles: 22427504 heartbeat IPC: 1.986 cumulative IPC: 2.052 (Simulation time: 00 hr 07 min 06 sec)
Heartbeat CPU 0 instructions: 80000014 cycles: 27462132 heartbeat IPC: 1.986 cumulative IPC: 2.03 (Simulation time: 00 hr 08 min 25 sec)
Heartbeat CPU 0 instructions: 90000014 cycles: 32564724 heartbeat IPC: 1.96 cumulative IPC: 2.012 (Simulation time: 00 hr 09 min 45 sec)
Heartbeat CPU 0 instructions: 100000015 cycles: 37601990 heartbeat IPC: 1.985 cumulative IPC: 2.006 (Simulation time: 00 hr 11 min 04 sec)
Heartbeat CPU 0 instructions: 110000015 cycles: 42637165 heartbeat IPC: 1.986 cumulative IPC: 2.003 (Simulation time: 00 hr 12 min 23 sec)
Heartbeat CPU 0 instructions: 120000018 cycles: 47680367 heartbeat IPC: 1.983 cumulative IPC: 2 (Simulation time: 00 hr 13 min 42 sec)
Heartbeat CPU 0 instructions: 130000018 cycles: 52713081 heartbeat IPC: 1.987 cumulative IPC: 1.998 (Simulation time: 00 hr 15 min 01 sec)
Heartbeat CPU 0 instructions: 140000018 cycles: 57774130 heartbeat IPC: 1.976 cumulative IPC: 1.996 (Simulation time: 00 hr 16 min 19 sec)
Simulation finished CPU 0 instructions: 100000002 cycles: 50132609 cumulative IPC: 1.995 (Simulation time: 00 hr 17 min 38 sec)
Simulation complete CPU 0 instructions: 100000002 cycles: 50132609 cumulative IPC: 1.995 (Simulation time: 00 hr 17 min 38 sec)

ChampSim completed all CPUs

=== Simulation ===
CPU 0 runs /home/zevs_gromovergec/Programming/Interview/Sber/Programming_modulating/ChampSim/tracers/456.hmmer-327B.champsimtrace.xz

Region of Interest Statistics

CPU 0 cumulative IPC: 1.995 instructions: 100000002 cycles: 50132609
CPU 0 Branch Prediction Accuracy: 99.38% MPKI: 0.2744 Average ROB Occupancy at Mispredict: 106.4
Branch type MPKI
BRANCH_DIRECT_JUMP: 2e-05
BRANCH_INDIRECT: 0.00042
BRANCH_CONDITIONAL: 0.2738
BRANCH_DIRECT_CALL: 4e-05
BRANCH_INDIRECT_CALL: 0.0001
BRANCH_RETURN: 5e-05

cpu0->cpu0_STLB TOTAL        ACCESS:       6570 HIT:       6436 MISS:        134 MSHR_MERGE:          0
cpu0->cpu0_STLB LOAD         ACCESS:       6570 HIT:       6436 MISS:        134 MSHR_MERGE:          0
cpu0->cpu0_STLB RFO          ACCESS:          0 HIT:          0 MISS:          0 MSHR_MERGE:          0
cpu0->cpu0_STLB PREFETCH     ACCESS:          0 HIT:          0 MISS:          0 MSHR_MERGE:          0
cpu0->cpu0_STLB WRITE        ACCESS:          0 HIT:          0 MISS:          0 MSHR_MERGE:          0
cpu0->cpu0_STLB TRANSLATION  ACCESS:          0 HIT:          0 MISS:          0 MSHR_MERGE:          0
cpu0->cpu0_STLB PREFETCH REQUESTED:          0 ISSUED:          0 USEFUL:          0 USELESS:          0
cpu0->cpu0_STLB AVERAGE MISS LATENCY: 675.1 cycles
cpu0->cpu0_L2C TOTAL        ACCESS:     681271 HIT:     200382 MISS:     480889 MSHR_MERGE:          0
cpu0->cpu0_L2C LOAD         ACCESS:     147636 HIT:     135565 MISS:      12071 MSHR_MERGE:          0
cpu0->cpu0_L2C RFO          ACCESS:     266400 HIT:        799 MISS:     265601 MSHR_MERGE:          0
cpu0->cpu0_L2C PREFETCH     ACCESS:          0 HIT:          0 MISS:          0 MSHR_MERGE:          0
cpu0->cpu0_L2C WRITE        ACCESS:     267065 HIT:      64014 MISS:     203051 MSHR_MERGE:          0
cpu0->cpu0_L2C TRANSLATION  ACCESS:        170 HIT:          4 MISS:        166 MSHR_MERGE:          0
cpu0->cpu0_L2C PREFETCH REQUESTED:          0 ISSUED:          0 USEFUL:          0 USELESS:          0
cpu0->cpu0_L2C AVERAGE MISS LATENCY: 42.41 cycles
cpu0->cpu0_L1I TOTAL        ACCESS:   19698409 HIT:   19698404 MISS:          5 MSHR_MERGE:          0
cpu0->cpu0_L1I LOAD         ACCESS:   19698409 HIT:   19698404 MISS:          5 MSHR_MERGE:          0
cpu0->cpu0_L1I RFO          ACCESS:          0 HIT:          0 MISS:          0 MSHR_MERGE:          0
cpu0->cpu0_L1I PREFETCH     ACCESS:          0 HIT:          0 MISS:          0 MSHR_MERGE:          0
cpu0->cpu0_L1I WRITE        ACCESS:          0 HIT:          0 MISS:          0 MSHR_MERGE:          0
cpu0->cpu0_L1I TRANSLATION  ACCESS:          0 HIT:          0 MISS:          0 MSHR_MERGE:          0
cpu0->cpu0_L1I PREFETCH REQUESTED:          0 ISSUED:          0 USEFUL:          0 USELESS:          0
cpu0->cpu0_L1I AVERAGE MISS LATENCY: 216.4 cycles
cpu0->cpu0_L1D TOTAL        ACCESS:   44454371 HIT:   42086647 MISS:    2367724 MSHR_MERGE:    1953523
cpu0->cpu0_L1D LOAD         ACCESS:   31487522 HIT:   31333839 MISS:     153683 MSHR_MERGE:       6052
cpu0->cpu0_L1D RFO          ACCESS:          0 HIT:          0 MISS:          0 MSHR_MERGE:          0
cpu0->cpu0_L1D PREFETCH     ACCESS:          0 HIT:          0 MISS:          0 MSHR_MERGE:          0
cpu0->cpu0_L1D WRITE        ACCESS:   12966581 HIT:   10752710 MISS:    2213871 MSHR_MERGE:    1947471
cpu0->cpu0_L1D TRANSLATION  ACCESS:        268 HIT:         98 MISS:        170 MSHR_MERGE:          0
cpu0->cpu0_L1D PREFETCH REQUESTED:          0 ISSUED:          0 USEFUL:          0 USELESS:          0
cpu0->cpu0_L1D AVERAGE MISS LATENCY: 55.96 cycles
cpu0->cpu0_ITLB TOTAL        ACCESS:   18176011 HIT:   18176009 MISS:          2 MSHR_MERGE:          1
cpu0->cpu0_ITLB LOAD         ACCESS:   18176011 HIT:   18176009 MISS:          2 MSHR_MERGE:          1
cpu0->cpu0_ITLB RFO          ACCESS:          0 HIT:          0 MISS:          0 MSHR_MERGE:          0
cpu0->cpu0_ITLB PREFETCH     ACCESS:          0 HIT:          0 MISS:          0 MSHR_MERGE:          0
cpu0->cpu0_ITLB WRITE        ACCESS:          0 HIT:          0 MISS:          0 MSHR_MERGE:          0
cpu0->cpu0_ITLB TRANSLATION  ACCESS:          0 HIT:          0 MISS:          0 MSHR_MERGE:          0
cpu0->cpu0_ITLB PREFETCH REQUESTED:          0 ISSUED:          0 USEFUL:          0 USELESS:          0
cpu0->cpu0_ITLB AVERAGE MISS LATENCY: 809 cycles
cpu0->cpu0_DTLB TOTAL        ACCESS:   42331945 HIT:   42320473 MISS:      11472 MSHR_MERGE:       4903
cpu0->cpu0_DTLB LOAD         ACCESS:   42331945 HIT:   42320473 MISS:      11472 MSHR_MERGE:       4903
cpu0->cpu0_DTLB RFO          ACCESS:          0 HIT:          0 MISS:          0 MSHR_MERGE:          0
cpu0->cpu0_DTLB PREFETCH     ACCESS:          0 HIT:          0 MISS:          0 MSHR_MERGE:          0
cpu0->cpu0_DTLB WRITE        ACCESS:          0 HIT:          0 MISS:          0 MSHR_MERGE:          0
cpu0->cpu0_DTLB TRANSLATION  ACCESS:          0 HIT:          0 MISS:          0 MSHR_MERGE:          0
cpu0->cpu0_DTLB PREFETCH REQUESTED:          0 ISSUED:          0 USEFUL:          0 USELESS:          0
cpu0->cpu0_DTLB AVERAGE MISS LATENCY: 18.68 cycles
cpu0->LLC TOTAL        ACCESS:     543779 HIT:     461940 MISS:      81839 MSHR_MERGE:          0
cpu0->LLC LOAD         ACCESS:      12071 HIT:      11238 MISS:        833 MSHR_MERGE:          0
cpu0->LLC RFO          ACCESS:     265601 HIT:     184908 MISS:      80693 MSHR_MERGE:          0
cpu0->LLC PREFETCH     ACCESS:          0 HIT:          0 MISS:          0 MSHR_MERGE:          0
cpu0->LLC WRITE        ACCESS:     265941 HIT:     265787 MISS:        154 MSHR_MERGE:          0
cpu0->LLC TRANSLATION  ACCESS:        166 HIT:          7 MISS:        159 MSHR_MERGE:          0
cpu0->LLC PREFETCH REQUESTED:          0 ISSUED:          0 USEFUL:          0 USELESS:          0
cpu0->LLC AVERAGE MISS LATENCY: 187.3 cycles

DRAM Statistics

Channel 0 RQ ROW_BUFFER_HIT:         27
  ROW_BUFFER_MISS:      81654
  AVG DBUS CONGESTED CYCLE: 6.899
Channel 0 WQ ROW_BUFFER_HIT:       1250
  ROW_BUFFER_MISS:      78605
  FULL:          0
Channel 0 REFRESHES ISSUED:       4178
