[VMEM] WARNING: physical memory size is smaller than virtual memory size.

*** ChampSim Multicore Out-of-Order Simulator ***
Warmup Instructions: 50000000
Simulation Instructions: 100000000
Number of CPUs: 1
Page size: 4096

Off-chip DRAM Size: 16 GiB Channels: 1 Width: 64-bit Data Rate: 3205 MT/s
*** Reached end of trace: (0, "./tracers/456.hmmer-191B.champsimtrace.xz")
*** Reached end of trace: (0, "./tracers/456.hmmer-191B.champsimtrace.xz")
*** Reached end of trace: (0, "./tracers/456.hmmer-191B.champsimtrace.xz")
*** Reached end of trace: (0, "./tracers/456.hmmer-191B.champsimtrace.xz")
*** Reached end of trace: (0, "./tracers/456.hmmer-191B.champsimtrace.xz")
*** Reached end of trace: (0, "./tracers/456.hmmer-191B.champsimtrace.xz")
*** Reached end of trace: (0, "./tracers/456.hmmer-191B.champsimtrace.xz")
*** Reached end of trace: (0, "./tracers/456.hmmer-191B.champsimtrace.xz")
*** Reached end of trace: (0, "./tracers/456.hmmer-191B.champsimtrace.xz")
*** Reached end of trace: (0, "./tracers/456.hmmer-191B.champsimtrace.xz")
Heartbeat CPU 0 instructions: 10000002 cycles: 2514212 heartbeat IPC: 3.977 cumulative IPC: 3.977 (Simulation time: 00 hr 00 min 35 sec)
*** Reached end of trace: (0, "./tracers/456.hmmer-191B.champsimtrace.xz")
*** Reached end of trace: (0, "./tracers/456.hmmer-191B.champsimtrace.xz")
*** Reached end of trace: (0, "./tracers/456.hmmer-191B.champsimtrace.xz")
*** Reached end of trace: (0, "./tracers/456.hmmer-191B.champsimtrace.xz")
*** Reached end of trace: (0, "./tracers/456.hmmer-191B.champsimtrace.xz")
*** Reached end of trace: (0, "./tracers/456.hmmer-191B.champsimtrace.xz")
*** Reached end of trace: (0, "./tracers/456.hmmer-191B.champsimtrace.xz")
*** Reached end of trace: (0, "./tracers/456.hmmer-191B.champsimtrace.xz")
*** Reached end of trace: (0, "./tracers/456.hmmer-191B.champsimtrace.xz")
*** Reached end of trace: (0, "./tracers/456.hmmer-191B.champsimtrace.xz")
*** Reached end of trace: (0, "./tracers/456.hmmer-191B.champsimtrace.xz")
Heartbeat CPU 0 instructions: 20000003 cycles: 5017573 heartbeat IPC: 3.995 cumulative IPC: 3.986 (Simulation time: 00 hr 01 min 08 sec)
*** Reached end of trace: (0, "./tracers/456.hmmer-191B.champsimtrace.xz")
*** Reached end of trace: (0, "./tracers/456.hmmer-191B.champsimtrace.xz")
*** Reached end of trace: (0, "./tracers/456.hmmer-191B.champsimtrace.xz")
*** Reached end of trace: (0, "./tracers/456.hmmer-191B.champsimtrace.xz")
*** Reached end of trace: (0, "./tracers/456.hmmer-191B.champsimtrace.xz")
*** Reached end of trace: (0, "./tracers/456.hmmer-191B.champsimtrace.xz")
*** Reached end of trace: (0, "./tracers/456.hmmer-191B.champsimtrace.xz")
*** Reached end of trace: (0, "./tracers/456.hmmer-191B.champsimtrace.xz")
*** Reached end of trace: (0, "./tracers/456.hmmer-191B.champsimtrace.xz")
*** Reached end of trace: (0, "./tracers/456.hmmer-191B.champsimtrace.xz")
*** Reached end of trace: (0, "./tracers/456.hmmer-191B.champsimtrace.xz")
Heartbeat CPU 0 instructions: 30000003 cycles: 7520941 heartbeat IPC: 3.995 cumulative IPC: 3.989 (Simulation time: 00 hr 01 min 44 sec)
*** Reached end of trace: (0, "./tracers/456.hmmer-191B.champsimtrace.xz")
*** Reached end of trace: (0, "./tracers/456.hmmer-191B.champsimtrace.xz")
*** Reached end of trace: (0, "./tracers/456.hmmer-191B.champsimtrace.xz")
*** Reached end of trace: (0, "./tracers/456.hmmer-191B.champsimtrace.xz")
*** Reached end of trace: (0, "./tracers/456.hmmer-191B.champsimtrace.xz")
*** Reached end of trace: (0, "./tracers/456.hmmer-191B.champsimtrace.xz")
*** Reached end of trace: (0, "./tracers/456.hmmer-191B.champsimtrace.xz")
*** Reached end of trace: (0, "./tracers/456.hmmer-191B.champsimtrace.xz")
*** Reached end of trace: (0, "./tracers/456.hmmer-191B.champsimtrace.xz")
*** Reached end of trace: (0, "./tracers/456.hmmer-191B.champsimtrace.xz")
*** Reached end of trace: (0, "./tracers/456.hmmer-191B.champsimtrace.xz")
Heartbeat CPU 0 instructions: 40000005 cycles: 10024316 heartbeat IPC: 3.995 cumulative IPC: 3.99 (Simulation time: 00 hr 02 min 37 sec)
*** Reached end of trace: (0, "./tracers/456.hmmer-191B.champsimtrace.xz")
*** Reached end of trace: (0, "./tracers/456.hmmer-191B.champsimtrace.xz")
*** Reached end of trace: (0, "./tracers/456.hmmer-191B.champsimtrace.xz")
*** Reached end of trace: (0, "./tracers/456.hmmer-191B.champsimtrace.xz")
*** Reached end of trace: (0, "./tracers/456.hmmer-191B.champsimtrace.xz")
*** Reached end of trace: (0, "./tracers/456.hmmer-191B.champsimtrace.xz")
*** Reached end of trace: (0, "./tracers/456.hmmer-191B.champsimtrace.xz")
*** Reached end of trace: (0, "./tracers/456.hmmer-191B.champsimtrace.xz")
*** Reached end of trace: (0, "./tracers/456.hmmer-191B.champsimtrace.xz")
*** Reached end of trace: (0, "./tracers/456.hmmer-191B.champsimtrace.xz")
Warmup finished CPU 0 instructions: 50000004 cycles: 12527684 cumulative IPC: 3.991 (Simulation time: 00 hr 03 min 19 sec)
Warmup complete CPU 0 instructions: 50000004 cycles: 12527684 cumulative IPC: 3.991 (Simulation time: 00 hr 03 min 19 sec)
Heartbeat CPU 0 instructions: 50000009 cycles: 12527685 heartbeat IPC: 3.995 cumulative IPC: 5 (Simulation time: 00 hr 03 min 19 sec)
*** Reached end of trace: (0, "./tracers/456.hmmer-191B.champsimtrace.xz")
*** Reached end of trace: (0, "./tracers/456.hmmer-191B.champsimtrace.xz")
*** Reached end of trace: (0, "./tracers/456.hmmer-191B.champsimtrace.xz")
*** Reached end of trace: (0, "./tracers/456.hmmer-191B.champsimtrace.xz")
*** Reached end of trace: (0, "./tracers/456.hmmer-191B.champsimtrace.xz")
*** Reached end of trace: (0, "./tracers/456.hmmer-191B.champsimtrace.xz")
*** Reached end of trace: (0, "./tracers/456.hmmer-191B.champsimtrace.xz")
*** Reached end of trace: (0, "./tracers/456.hmmer-191B.champsimtrace.xz")
*** Reached end of trace: (0, "./tracers/456.hmmer-191B.champsimtrace.xz")
*** Reached end of trace: (0, "./tracers/456.hmmer-191B.champsimtrace.xz")
*** Reached end of trace: (0, "./tracers/456.hmmer-191B.champsimtrace.xz")
Heartbeat CPU 0 instructions: 60000009 cycles: 17008522 heartbeat IPC: 2.232 cumulative IPC: 2.232 (Simulation time: 00 hr 04 min 27 sec)
*** Reached end of trace: (0, "./tracers/456.hmmer-191B.champsimtrace.xz")
*** Reached end of trace: (0, "./tracers/456.hmmer-191B.champsimtrace.xz")
*** Reached end of trace: (0, "./tracers/456.hmmer-191B.champsimtrace.xz")
*** Reached end of trace: (0, "./tracers/456.hmmer-191B.champsimtrace.xz")
*** Reached end of trace: (0, "./tracers/456.hmmer-191B.champsimtrace.xz")
*** Reached end of trace: (0, "./tracers/456.hmmer-191B.champsimtrace.xz")
*** Reached end of trace: (0, "./tracers/456.hmmer-191B.champsimtrace.xz")
*** Reached end of trace: (0, "./tracers/456.hmmer-191B.champsimtrace.xz")
*** Reached end of trace: (0, "./tracers/456.hmmer-191B.champsimtrace.xz")
*** Reached end of trace: (0, "./tracers/456.hmmer-191B.champsimtrace.xz")
*** Reached end of trace: (0, "./tracers/456.hmmer-191B.champsimtrace.xz")
Heartbeat CPU 0 instructions: 70000011 cycles: 21488952 heartbeat IPC: 2.232 cumulative IPC: 2.232 (Simulation time: 00 hr 05 min 12 sec)
*** Reached end of trace: (0, "./tracers/456.hmmer-191B.champsimtrace.xz")
*** Reached end of trace: (0, "./tracers/456.hmmer-191B.champsimtrace.xz")
*** Reached end of trace: (0, "./tracers/456.hmmer-191B.champsimtrace.xz")
*** Reached end of trace: (0, "./tracers/456.hmmer-191B.champsimtrace.xz")
*** Reached end of trace: (0, "./tracers/456.hmmer-191B.champsimtrace.xz")
*** Reached end of trace: (0, "./tracers/456.hmmer-191B.champsimtrace.xz")
*** Reached end of trace: (0, "./tracers/456.hmmer-191B.champsimtrace.xz")
*** Reached end of trace: (0, "./tracers/456.hmmer-191B.champsimtrace.xz")
*** Reached end of trace: (0, "./tracers/456.hmmer-191B.champsimtrace.xz")
*** Reached end of trace: (0, "./tracers/456.hmmer-191B.champsimtrace.xz")
*** Reached end of trace: (0, "./tracers/456.hmmer-191B.champsimtrace.xz")
Heartbeat CPU 0 instructions: 80000011 cycles: 25969796 heartbeat IPC: 2.232 cumulative IPC: 2.232 (Simulation time: 00 hr 05 min 56 sec)
*** Reached end of trace: (0, "./tracers/456.hmmer-191B.champsimtrace.xz")
*** Reached end of trace: (0, "./tracers/456.hmmer-191B.champsimtrace.xz")
*** Reached end of trace: (0, "./tracers/456.hmmer-191B.champsimtrace.xz")
*** Reached end of trace: (0, "./tracers/456.hmmer-191B.champsimtrace.xz")
*** Reached end of trace: (0, "./tracers/456.hmmer-191B.champsimtrace.xz")
*** Reached end of trace: (0, "./tracers/456.hmmer-191B.champsimtrace.xz")
*** Reached end of trace: (0, "./tracers/456.hmmer-191B.champsimtrace.xz")
*** Reached end of trace: (0, "./tracers/456.hmmer-191B.champsimtrace.xz")
*** Reached end of trace: (0, "./tracers/456.hmmer-191B.champsimtrace.xz")
*** Reached end of trace: (0, "./tracers/456.hmmer-191B.champsimtrace.xz")
Heartbeat CPU 0 instructions: 90000012 cycles: 30450646 heartbeat IPC: 2.232 cumulative IPC: 2.232 (Simulation time: 00 hr 06 min 39 sec)
*** Reached end of trace: (0, "./tracers/456.hmmer-191B.champsimtrace.xz")
*** Reached end of trace: (0, "./tracers/456.hmmer-191B.champsimtrace.xz")
*** Reached end of trace: (0, "./tracers/456.hmmer-191B.champsimtrace.xz")
*** Reached end of trace: (0, "./tracers/456.hmmer-191B.champsimtrace.xz")
*** Reached end of trace: (0, "./tracers/456.hmmer-191B.champsimtrace.xz")
*** Reached end of trace: (0, "./tracers/456.hmmer-191B.champsimtrace.xz")
*** Reached end of trace: (0, "./tracers/456.hmmer-191B.champsimtrace.xz")
*** Reached end of trace: (0, "./tracers/456.hmmer-191B.champsimtrace.xz")
*** Reached end of trace: (0, "./tracers/456.hmmer-191B.champsimtrace.xz")
*** Reached end of trace: (0, "./tracers/456.hmmer-191B.champsimtrace.xz")
*** Reached end of trace: (0, "./tracers/456.hmmer-191B.champsimtrace.xz")
Heartbeat CPU 0 instructions: 100000013 cycles: 34930562 heartbeat IPC: 2.232 cumulative IPC: 2.232 (Simulation time: 00 hr 07 min 23 sec)
*** Reached end of trace: (0, "./tracers/456.hmmer-191B.champsimtrace.xz")
*** Reached end of trace: (0, "./tracers/456.hmmer-191B.champsimtrace.xz")
*** Reached end of trace: (0, "./tracers/456.hmmer-191B.champsimtrace.xz")
*** Reached end of trace: (0, "./tracers/456.hmmer-191B.champsimtrace.xz")
*** Reached end of trace: (0, "./tracers/456.hmmer-191B.champsimtrace.xz")
*** Reached end of trace: (0, "./tracers/456.hmmer-191B.champsimtrace.xz")
*** Reached end of trace: (0, "./tracers/456.hmmer-191B.champsimtrace.xz")
*** Reached end of trace: (0, "./tracers/456.hmmer-191B.champsimtrace.xz")
*** Reached end of trace: (0, "./tracers/456.hmmer-191B.champsimtrace.xz")
*** Reached end of trace: (0, "./tracers/456.hmmer-191B.champsimtrace.xz")
*** Reached end of trace: (0, "./tracers/456.hmmer-191B.champsimtrace.xz")
Heartbeat CPU 0 instructions: 110000016 cycles: 39410021 heartbeat IPC: 2.232 cumulative IPC: 2.232 (Simulation time: 00 hr 08 min 05 sec)
*** Reached end of trace: (0, "./tracers/456.hmmer-191B.champsimtrace.xz")
*** Reached end of trace: (0, "./tracers/456.hmmer-191B.champsimtrace.xz")
*** Reached end of trace: (0, "./tracers/456.hmmer-191B.champsimtrace.xz")
*** Reached end of trace: (0, "./tracers/456.hmmer-191B.champsimtrace.xz")
*** Reached end of trace: (0, "./tracers/456.hmmer-191B.champsimtrace.xz")
*** Reached end of trace: (0, "./tracers/456.hmmer-191B.champsimtrace.xz")
*** Reached end of trace: (0, "./tracers/456.hmmer-191B.champsimtrace.xz")
*** Reached end of trace: (0, "./tracers/456.hmmer-191B.champsimtrace.xz")
*** Reached end of trace: (0, "./tracers/456.hmmer-191B.champsimtrace.xz")
*** Reached end of trace: (0, "./tracers/456.hmmer-191B.champsimtrace.xz")
*** Reached end of trace: (0, "./tracers/456.hmmer-191B.champsimtrace.xz")
Heartbeat CPU 0 instructions: 120000017 cycles: 43889975 heartbeat IPC: 2.232 cumulative IPC: 2.232 (Simulation time: 00 hr 08 min 49 sec)
*** Reached end of trace: (0, "./tracers/456.hmmer-191B.champsimtrace.xz")
*** Reached end of trace: (0, "./tracers/456.hmmer-191B.champsimtrace.xz")
*** Reached end of trace: (0, "./tracers/456.hmmer-191B.champsimtrace.xz")
*** Reached end of trace: (0, "./tracers/456.hmmer-191B.champsimtrace.xz")
*** Reached end of trace: (0, "./tracers/456.hmmer-191B.champsimtrace.xz")
*** Reached end of trace: (0, "./tracers/456.hmmer-191B.champsimtrace.xz")
*** Reached end of trace: (0, "./tracers/456.hmmer-191B.champsimtrace.xz")
*** Reached end of trace: (0, "./tracers/456.hmmer-191B.champsimtrace.xz")
*** Reached end of trace: (0, "./tracers/456.hmmer-191B.champsimtrace.xz")
*** Reached end of trace: (0, "./tracers/456.hmmer-191B.champsimtrace.xz")
*** Reached end of trace: (0, "./tracers/456.hmmer-191B.champsimtrace.xz")
Heartbeat CPU 0 instructions: 130000020 cycles: 48370557 heartbeat IPC: 2.232 cumulative IPC: 2.232 (Simulation time: 00 hr 09 min 32 sec)
*** Reached end of trace: (0, "./tracers/456.hmmer-191B.champsimtrace.xz")
*** Reached end of trace: (0, "./tracers/456.hmmer-191B.champsimtrace.xz")
*** Reached end of trace: (0, "./tracers/456.hmmer-191B.champsimtrace.xz")
*** Reached end of trace: (0, "./tracers/456.hmmer-191B.champsimtrace.xz")
*** Reached end of trace: (0, "./tracers/456.hmmer-191B.champsimtrace.xz")
*** Reached end of trace: (0, "./tracers/456.hmmer-191B.champsimtrace.xz")
*** Reached end of trace: (0, "./tracers/456.hmmer-191B.champsimtrace.xz")
*** Reached end of trace: (0, "./tracers/456.hmmer-191B.champsimtrace.xz")
*** Reached end of trace: (0, "./tracers/456.hmmer-191B.champsimtrace.xz")
*** Reached end of trace: (0, "./tracers/456.hmmer-191B.champsimtrace.xz")
Heartbeat CPU 0 instructions: 140000021 cycles: 52850512 heartbeat IPC: 2.232 cumulative IPC: 2.232 (Simulation time: 00 hr 10 min 13 sec)
*** Reached end of trace: (0, "./tracers/456.hmmer-191B.champsimtrace.xz")
*** Reached end of trace: (0, "./tracers/456.hmmer-191B.champsimtrace.xz")
*** Reached end of trace: (0, "./tracers/456.hmmer-191B.champsimtrace.xz")
*** Reached end of trace: (0, "./tracers/456.hmmer-191B.champsimtrace.xz")
*** Reached end of trace: (0, "./tracers/456.hmmer-191B.champsimtrace.xz")
*** Reached end of trace: (0, "./tracers/456.hmmer-191B.champsimtrace.xz")
*** Reached end of trace: (0, "./tracers/456.hmmer-191B.champsimtrace.xz")
*** Reached end of trace: (0, "./tracers/456.hmmer-191B.champsimtrace.xz")
*** Reached end of trace: (0, "./tracers/456.hmmer-191B.champsimtrace.xz")
*** Reached end of trace: (0, "./tracers/456.hmmer-191B.champsimtrace.xz")
*** Reached end of trace: (0, "./tracers/456.hmmer-191B.champsimtrace.xz")
Simulation finished CPU 0 instructions: 100000002 cycles: 44802947 cumulative IPC: 2.232 (Simulation time: 00 hr 10 min 53 sec)
Simulation complete CPU 0 instructions: 100000002 cycles: 44802947 cumulative IPC: 2.232 (Simulation time: 00 hr 10 min 53 sec)

ChampSim completed all CPUs

=== Simulation ===
CPU 0 runs ./tracers/456.hmmer-191B.champsimtrace.xz

Region of Interest Statistics

CPU 0 cumulative IPC: 2.232 instructions: 100000002 cycles: 44802947
CPU 0 Branch Prediction Accuracy: 99.58% MPKI: 0.1799 Average ROB Occupancy at Mispredict: 145.8
Branch type MPKI
BRANCH_DIRECT_JUMP: 0
BRANCH_INDIRECT: 0
BRANCH_CONDITIONAL: 0.1799
BRANCH_DIRECT_CALL: 0
BRANCH_INDIRECT_CALL: 0
BRANCH_RETURN: 0

cpu0->cpu0_STLB TOTAL        ACCESS:       1943 HIT:       1943 MISS:          0 MSHR_MERGE:          0
cpu0->cpu0_STLB LOAD         ACCESS:       1943 HIT:       1943 MISS:          0 MSHR_MERGE:          0
cpu0->cpu0_STLB RFO          ACCESS:          0 HIT:          0 MISS:          0 MSHR_MERGE:          0
cpu0->cpu0_STLB PREFETCH     ACCESS:          0 HIT:          0 MISS:          0 MSHR_MERGE:          0
cpu0->cpu0_STLB WRITE        ACCESS:          0 HIT:          0 MISS:          0 MSHR_MERGE:          0
cpu0->cpu0_STLB TRANSLATION  ACCESS:          0 HIT:          0 MISS:          0 MSHR_MERGE:          0
cpu0->cpu0_STLB PREFETCH REQUESTED:          0 ISSUED:          0 USEFUL:          0 USELESS:          0
cpu0->cpu0_STLB AVERAGE MISS LATENCY: - cycles
cpu0->cpu0_L2C TOTAL        ACCESS:     680225 HIT:     392017 MISS:     288208 MSHR_MERGE:          0
cpu0->cpu0_L2C LOAD         ACCESS:     146670 HIT:     123128 MISS:      23542 MSHR_MERGE:          0
cpu0->cpu0_L2C RFO          ACCESS:     266676 HIT:     129224 MISS:     137452 MSHR_MERGE:          0
cpu0->cpu0_L2C PREFETCH     ACCESS:          0 HIT:          0 MISS:          0 MSHR_MERGE:          0
cpu0->cpu0_L2C WRITE        ACCESS:     266879 HIT:     139665 MISS:     127214 MSHR_MERGE:          0
cpu0->cpu0_L2C TRANSLATION  ACCESS:          0 HIT:          0 MISS:          0 MSHR_MERGE:          0
cpu0->cpu0_L2C PREFETCH REQUESTED:          0 ISSUED:          0 USEFUL:          0 USELESS:          0
cpu0->cpu0_L2C AVERAGE MISS LATENCY: 10.16 cycles
cpu0->cpu0_L1I TOTAL        ACCESS:   18472595 HIT:   18472595 MISS:          0 MSHR_MERGE:          0
cpu0->cpu0_L1I LOAD         ACCESS:   18472595 HIT:   18472595 MISS:          0 MSHR_MERGE:          0
cpu0->cpu0_L1I RFO          ACCESS:          0 HIT:          0 MISS:          0 MSHR_MERGE:          0
cpu0->cpu0_L1I PREFETCH     ACCESS:          0 HIT:          0 MISS:          0 MSHR_MERGE:          0
cpu0->cpu0_L1I WRITE        ACCESS:          0 HIT:          0 MISS:          0 MSHR_MERGE:          0
cpu0->cpu0_L1I TRANSLATION  ACCESS:          0 HIT:          0 MISS:          0 MSHR_MERGE:          0
cpu0->cpu0_L1I PREFETCH REQUESTED:          0 ISSUED:          0 USEFUL:          0 USELESS:          0
cpu0->cpu0_L1I AVERAGE MISS LATENCY: - cycles
cpu0->cpu0_L1D TOTAL        ACCESS:   40910691 HIT:   39964412 MISS:     946279 MSHR_MERGE:     532933
cpu0->cpu0_L1D LOAD         ACCESS:   29267933 HIT:   29076324 MISS:     191609 MSHR_MERGE:      44939
cpu0->cpu0_L1D RFO          ACCESS:          0 HIT:          0 MISS:          0 MSHR_MERGE:          0
cpu0->cpu0_L1D PREFETCH     ACCESS:          0 HIT:          0 MISS:          0 MSHR_MERGE:          0
cpu0->cpu0_L1D WRITE        ACCESS:   11642758 HIT:   10888088 MISS:     754670 MSHR_MERGE:     487994
cpu0->cpu0_L1D TRANSLATION  ACCESS:          0 HIT:          0 MISS:          0 MSHR_MERGE:          0
cpu0->cpu0_L1D PREFETCH REQUESTED:          0 ISSUED:          0 USEFUL:          0 USELESS:          0
cpu0->cpu0_L1D AVERAGE MISS LATENCY: 14.26 cycles
cpu0->cpu0_ITLB TOTAL        ACCESS:   16342697 HIT:   16342697 MISS:          0 MSHR_MERGE:          0
cpu0->cpu0_ITLB LOAD         ACCESS:   16342697 HIT:   16342697 MISS:          0 MSHR_MERGE:          0
cpu0->cpu0_ITLB RFO          ACCESS:          0 HIT:          0 MISS:          0 MSHR_MERGE:          0
cpu0->cpu0_ITLB PREFETCH     ACCESS:          0 HIT:          0 MISS:          0 MSHR_MERGE:          0
cpu0->cpu0_ITLB WRITE        ACCESS:          0 HIT:          0 MISS:          0 MSHR_MERGE:          0
cpu0->cpu0_ITLB TRANSLATION  ACCESS:          0 HIT:          0 MISS:          0 MSHR_MERGE:          0
cpu0->cpu0_ITLB PREFETCH REQUESTED:          0 ISSUED:          0 USEFUL:          0 USELESS:          0
cpu0->cpu0_ITLB AVERAGE MISS LATENCY: - cycles
cpu0->cpu0_DTLB TOTAL        ACCESS:   39189846 HIT:   39186390 MISS:       3456 MSHR_MERGE:       1513
cpu0->cpu0_DTLB LOAD         ACCESS:   39189846 HIT:   39186390 MISS:       3456 MSHR_MERGE:       1513
cpu0->cpu0_DTLB RFO          ACCESS:          0 HIT:          0 MISS:          0 MSHR_MERGE:          0
cpu0->cpu0_DTLB PREFETCH     ACCESS:          0 HIT:          0 MISS:          0 MSHR_MERGE:          0
cpu0->cpu0_DTLB WRITE        ACCESS:          0 HIT:          0 MISS:          0 MSHR_MERGE:          0
cpu0->cpu0_DTLB TRANSLATION  ACCESS:          0 HIT:          0 MISS:          0 MSHR_MERGE:          0
cpu0->cpu0_DTLB PREFETCH REQUESTED:          0 ISSUED:          0 USEFUL:          0 USELESS:          0
cpu0->cpu0_DTLB AVERAGE MISS LATENCY: 5.002 cycles
cpu0->LLC TOTAL        ACCESS:     298785 HIT:     298785 MISS:          0 MSHR_MERGE:          0
cpu0->LLC LOAD         ACCESS:      23542 HIT:      23542 MISS:          0 MSHR_MERGE:          0
cpu0->LLC RFO          ACCESS:     137452 HIT:     137452 MISS:          0 MSHR_MERGE:          0
cpu0->LLC PREFETCH     ACCESS:          0 HIT:          0 MISS:          0 MSHR_MERGE:          0
cpu0->LLC WRITE        ACCESS:     137791 HIT:     137791 MISS:          0 MSHR_MERGE:          0
cpu0->LLC TRANSLATION  ACCESS:          0 HIT:          0 MISS:          0 MSHR_MERGE:          0
cpu0->LLC PREFETCH REQUESTED:          0 ISSUED:          0 USEFUL:          0 USELESS:          0
cpu0->LLC AVERAGE MISS LATENCY: - cycles

DRAM Statistics

Channel 0 RQ ROW_BUFFER_HIT:          0
  ROW_BUFFER_MISS:          0
  AVG DBUS CONGESTED CYCLE: -
Channel 0 WQ ROW_BUFFER_HIT:          0
  ROW_BUFFER_MISS:          0
  FULL:          0
Channel 0 REFRESHES ISSUED:       3734
