[VMEM] WARNING: physical memory size is smaller than virtual memory size.

*** ChampSim Multicore Out-of-Order Simulator ***
Warmup Instructions: 50000000
Simulation Instructions: 100000000
Number of CPUs: 1
Page size: 4096

Off-chip DRAM Size: 16 GiB Channels: 1 Width: 64-bit Data Rate: 3205 MT/s
Heartbeat CPU 0 instructions: 10000002 cycles: 2675505 heartbeat IPC: 3.738 cumulative IPC: 3.738 (Simulation time: 00 hr 00 min 41 sec)
Heartbeat CPU 0 instructions: 20000004 cycles: 5355940 heartbeat IPC: 3.731 cumulative IPC: 3.734 (Simulation time: 00 hr 01 min 24 sec)
Heartbeat CPU 0 instructions: 30000004 cycles: 8081743 heartbeat IPC: 3.669 cumulative IPC: 3.712 (Simulation time: 00 hr 02 min 13 sec)
Heartbeat CPU 0 instructions: 40000005 cycles: 10803269 heartbeat IPC: 3.674 cumulative IPC: 3.703 (Simulation time: 00 hr 03 min 03 sec)
Warmup finished CPU 0 instructions: 50000001 cycles: 13518169 cumulative IPC: 3.699 (Simulation time: 00 hr 03 min 53 sec)
Warmup complete CPU 0 instructions: 50000001 cycles: 13518169 cumulative IPC: 3.699 (Simulation time: 00 hr 03 min 53 sec)
Heartbeat CPU 0 instructions: 50000006 cycles: 13518170 heartbeat IPC: 3.683 cumulative IPC: 5 (Simulation time: 00 hr 03 min 53 sec)
Heartbeat CPU 0 instructions: 60000009 cycles: 23342355 heartbeat IPC: 1.018 cumulative IPC: 1.018 (Simulation time: 00 hr 06 min 05 sec)
Heartbeat CPU 0 instructions: 70000011 cycles: 33147095 heartbeat IPC: 1.02 cumulative IPC: 1.019 (Simulation time: 00 hr 08 min 15 sec)
Heartbeat CPU 0 instructions: 80000012 cycles: 42985241 heartbeat IPC: 1.016 cumulative IPC: 1.018 (Simulation time: 00 hr 10 min 27 sec)
Heartbeat CPU 0 instructions: 90000014 cycles: 64080080 heartbeat IPC: 0.474 cumulative IPC: 0.7911 (Simulation time: 00 hr 14 min 32 sec)
Heartbeat CPU 0 instructions: 100000015 cycles: 87127334 heartbeat IPC: 0.4339 cumulative IPC: 0.6793 (Simulation time: 00 hr 18 min 54 sec)
Heartbeat CPU 0 instructions: 110000017 cycles: 108696678 heartbeat IPC: 0.4636 cumulative IPC: 0.6304 (Simulation time: 00 hr 23 min 00 sec)
Heartbeat CPU 0 instructions: 120000019 cycles: 121425657 heartbeat IPC: 0.7856 cumulative IPC: 0.6487 (Simulation time: 00 hr 25 min 25 sec)
Heartbeat CPU 0 instructions: 130000021 cycles: 134082900 heartbeat IPC: 0.7901 cumulative IPC: 0.6635 (Simulation time: 00 hr 27 min 51 sec)
Heartbeat CPU 0 instructions: 140000023 cycles: 146738992 heartbeat IPC: 0.7901 cumulative IPC: 0.6756 (Simulation time: 00 hr 30 min 17 sec)
Simulation finished CPU 0 instructions: 100000000 cycles: 145534560 cumulative IPC: 0.6871 (Simulation time: 00 hr 32 min 40 sec)
Simulation complete CPU 0 instructions: 100000000 cycles: 145534560 cumulative IPC: 0.6871 (Simulation time: 00 hr 32 min 40 sec)

ChampSim completed all CPUs

=== Simulation ===
CPU 0 runs /home/zevs_gromovergec/Programming/Interview/Sber/Programming_modulating/ChampSim/tracers/437.leslie3d-273B.champsimtrace.xz

Region of Interest Statistics

CPU 0 cumulative IPC: 0.6871 instructions: 100000000 cycles: 145534560
CPU 0 Branch Prediction Accuracy: 99.19% MPKI: 0.1548 Average ROB Occupancy at Mispredict: 335.8
Branch type MPKI
BRANCH_DIRECT_JUMP: 6e-05
BRANCH_INDIRECT: 0
BRANCH_CONDITIONAL: 0.1547
BRANCH_DIRECT_CALL: 0
BRANCH_INDIRECT_CALL: 0
BRANCH_RETURN: 1e-05

cpu0->cpu0_STLB TOTAL        ACCESS:      14228 HIT:        499 MISS:      13729 MSHR_MERGE:          0
cpu0->cpu0_STLB LOAD         ACCESS:      14228 HIT:        499 MISS:      13729 MSHR_MERGE:          0
cpu0->cpu0_STLB RFO          ACCESS:          0 HIT:          0 MISS:          0 MSHR_MERGE:          0
cpu0->cpu0_STLB PREFETCH     ACCESS:          0 HIT:          0 MISS:          0 MSHR_MERGE:          0
cpu0->cpu0_STLB WRITE        ACCESS:          0 HIT:          0 MISS:          0 MSHR_MERGE:          0
cpu0->cpu0_STLB TRANSLATION  ACCESS:          0 HIT:          0 MISS:          0 MSHR_MERGE:          0
cpu0->cpu0_STLB PREFETCH REQUESTED:          0 ISSUED:          0 USEFUL:          0 USELESS:          0
cpu0->cpu0_STLB AVERAGE MISS LATENCY: 473.7 cycles
cpu0->cpu0_L2C TOTAL        ACCESS:    1162958 HIT:     289179 MISS:     873779 MSHR_MERGE:          0
cpu0->cpu0_L2C LOAD         ACCESS:     606642 HIT:      13241 MISS:     593401 MSHR_MERGE:          0
cpu0->cpu0_L2C RFO          ACCESS:     268539 HIT:       3959 MISS:     264580 MSHR_MERGE:          0
cpu0->cpu0_L2C PREFETCH     ACCESS:          0 HIT:          0 MISS:          0 MSHR_MERGE:          0
cpu0->cpu0_L2C WRITE        ACCESS:     271822 HIT:     271808 MISS:         14 MSHR_MERGE:          0
cpu0->cpu0_L2C TRANSLATION  ACCESS:      15955 HIT:        171 MISS:      15784 MSHR_MERGE:          0
cpu0->cpu0_L2C PREFETCH REQUESTED:          0 ISSUED:          0 USEFUL:          0 USELESS:          0
cpu0->cpu0_L2C AVERAGE MISS LATENCY: 225.2 cycles
cpu0->cpu0_L1I TOTAL        ACCESS:   21521511 HIT:   21521354 MISS:        157 MSHR_MERGE:         69
cpu0->cpu0_L1I LOAD         ACCESS:   21521511 HIT:   21521354 MISS:        157 MSHR_MERGE:         69
cpu0->cpu0_L1I RFO          ACCESS:          0 HIT:          0 MISS:          0 MSHR_MERGE:          0
cpu0->cpu0_L1I PREFETCH     ACCESS:          0 HIT:          0 MISS:          0 MSHR_MERGE:          0
cpu0->cpu0_L1I WRITE        ACCESS:          0 HIT:          0 MISS:          0 MSHR_MERGE:          0
cpu0->cpu0_L1I TRANSLATION  ACCESS:          0 HIT:          0 MISS:          0 MSHR_MERGE:          0
cpu0->cpu0_L1I PREFETCH REQUESTED:          0 ISSUED:          0 USEFUL:          0 USELESS:          0
cpu0->cpu0_L1I AVERAGE MISS LATENCY: 233.9 cycles
cpu0->cpu0_L1D TOTAL        ACCESS:   35842000 HIT:   33383778 MISS:    2458222 MSHR_MERGE:    1567174
cpu0->cpu0_L1D LOAD         ACCESS:   33598180 HIT:   32646471 MISS:     951709 MSHR_MERGE:     345155
cpu0->cpu0_L1D RFO          ACCESS:          0 HIT:          0 MISS:          0 MSHR_MERGE:          0
cpu0->cpu0_L1D PREFETCH     ACCESS:          0 HIT:          0 MISS:          0 MSHR_MERGE:          0
cpu0->cpu0_L1D WRITE        ACCESS:    2216348 HIT:     725795 MISS:    1490553 MSHR_MERGE:    1222014
cpu0->cpu0_L1D TRANSLATION  ACCESS:      27472 HIT:      11512 MISS:      15960 MSHR_MERGE:          5
cpu0->cpu0_L1D PREFETCH REQUESTED:          0 ISSUED:          0 USEFUL:          0 USELESS:          0
cpu0->cpu0_L1D AVERAGE MISS LATENCY: 229.8 cycles
cpu0->cpu0_ITLB TOTAL        ACCESS:   17943298 HIT:   17943291 MISS:          7 MSHR_MERGE:          5
cpu0->cpu0_ITLB LOAD         ACCESS:   17943298 HIT:   17943291 MISS:          7 MSHR_MERGE:          5
cpu0->cpu0_ITLB RFO          ACCESS:          0 HIT:          0 MISS:          0 MSHR_MERGE:          0
cpu0->cpu0_ITLB PREFETCH     ACCESS:          0 HIT:          0 MISS:          0 MSHR_MERGE:          0
cpu0->cpu0_ITLB WRITE        ACCESS:          0 HIT:          0 MISS:          0 MSHR_MERGE:          0
cpu0->cpu0_ITLB TRANSLATION  ACCESS:          0 HIT:          0 MISS:          0 MSHR_MERGE:          0
cpu0->cpu0_ITLB PREFETCH REQUESTED:          0 ISSUED:          0 USEFUL:          0 USELESS:          0
cpu0->cpu0_ITLB AVERAGE MISS LATENCY: 885.5 cycles
cpu0->cpu0_DTLB TOTAL        ACCESS:   34518223 HIT:   34454383 MISS:      63840 MSHR_MERGE:      49614
cpu0->cpu0_DTLB LOAD         ACCESS:   34518223 HIT:   34454383 MISS:      63840 MSHR_MERGE:      49614
cpu0->cpu0_DTLB RFO          ACCESS:          0 HIT:          0 MISS:          0 MSHR_MERGE:          0
cpu0->cpu0_DTLB PREFETCH     ACCESS:          0 HIT:          0 MISS:          0 MSHR_MERGE:          0
cpu0->cpu0_DTLB WRITE        ACCESS:          0 HIT:          0 MISS:          0 MSHR_MERGE:          0
cpu0->cpu0_DTLB TRANSLATION  ACCESS:          0 HIT:          0 MISS:          0 MSHR_MERGE:          0
cpu0->cpu0_DTLB PREFETCH REQUESTED:          0 ISSUED:          0 USEFUL:          0 USELESS:          0
cpu0->cpu0_DTLB AVERAGE MISS LATENCY: 463 cycles
cpu0->LLC TOTAL        ACCESS:    1139507 HIT:     265943 MISS:     873564 MSHR_MERGE:          0
cpu0->LLC LOAD         ACCESS:     593401 HIT:        160 MISS:     593241 MSHR_MERGE:          0
cpu0->LLC RFO          ACCESS:     264580 HIT:         29 MISS:     264551 MSHR_MERGE:          0
cpu0->LLC PREFETCH     ACCESS:          0 HIT:          0 MISS:          0 MSHR_MERGE:          0
cpu0->LLC WRITE        ACCESS:     265742 HIT:     265741 MISS:          1 MSHR_MERGE:          0
cpu0->LLC TRANSLATION  ACCESS:      15784 HIT:         13 MISS:      15771 MSHR_MERGE:          0
cpu0->LLC PREFETCH REQUESTED:          0 ISSUED:          0 USEFUL:          0 USELESS:          0
cpu0->LLC AVERAGE MISS LATENCY: 209.2 cycles

DRAM Statistics

Channel 0 RQ ROW_BUFFER_HIT:         99
  ROW_BUFFER_MISS:     873464
  AVG DBUS CONGESTED CYCLE: 11.52
Channel 0 WQ ROW_BUFFER_HIT:     103143
  ROW_BUFFER_MISS:     172561
  FULL:          0
Channel 0 REFRESHES ISSUED:      12128
