[VMEM] WARNING: physical memory size is smaller than virtual memory size.

*** ChampSim Multicore Out-of-Order Simulator ***
Warmup Instructions: 50000000
Simulation Instructions: 100000000
Number of CPUs: 1
Page size: 4096

Off-chip DRAM Size: 16 GiB Channels: 1 Width: 64-bit Data Rate: 3205 MT/s
Heartbeat CPU 0 instructions: 10000000 cycles: 2560235 heartbeat IPC: 3.906 cumulative IPC: 3.906 (Simulation time: 00 hr 00 min 42 sec)
Heartbeat CPU 0 instructions: 20000003 cycles: 5072624 heartbeat IPC: 3.98 cumulative IPC: 3.943 (Simulation time: 00 hr 01 min 21 sec)
Heartbeat CPU 0 instructions: 30000003 cycles: 7589913 heartbeat IPC: 3.973 cumulative IPC: 3.953 (Simulation time: 00 hr 02 min 06 sec)
Heartbeat CPU 0 instructions: 40000006 cycles: 10101950 heartbeat IPC: 3.981 cumulative IPC: 3.96 (Simulation time: 00 hr 02 min 50 sec)
Warmup finished CPU 0 instructions: 50000000 cycles: 12616339 cumulative IPC: 3.963 (Simulation time: 00 hr 03 min 36 sec)
Warmup complete CPU 0 instructions: 50000000 cycles: 12616339 cumulative IPC: 3.963 (Simulation time: 00 hr 03 min 36 sec)
Heartbeat CPU 0 instructions: 50000008 cycles: 12616341 heartbeat IPC: 3.977 cumulative IPC: 4 (Simulation time: 00 hr 03 min 36 sec)
Heartbeat CPU 0 instructions: 60000008 cycles: 16895619 heartbeat IPC: 2.337 cumulative IPC: 2.337 (Simulation time: 00 hr 04 min 26 sec)
Heartbeat CPU 0 instructions: 70000010 cycles: 21231533 heartbeat IPC: 2.306 cumulative IPC: 2.321 (Simulation time: 00 hr 05 min 00 sec)
Heartbeat CPU 0 instructions: 80000011 cycles: 25517252 heartbeat IPC: 2.333 cumulative IPC: 2.325 (Simulation time: 00 hr 05 min 54 sec)
Heartbeat CPU 0 instructions: 90000012 cycles: 29816268 heartbeat IPC: 2.326 cumulative IPC: 2.326 (Simulation time: 00 hr 06 min 47 sec)
Heartbeat CPU 0 instructions: 100000012 cycles: 34025604 heartbeat IPC: 2.376 cumulative IPC: 2.335 (Simulation time: 00 hr 07 min 36 sec)
Heartbeat CPU 0 instructions: 110000015 cycles: 38137224 heartbeat IPC: 2.432 cumulative IPC: 2.351 (Simulation time: 00 hr 08 min 09 sec)
Heartbeat CPU 0 instructions: 120000016 cycles: 50801634 heartbeat IPC: 0.7896 cumulative IPC: 1.833 (Simulation time: 00 hr 09 min 26 sec)
Heartbeat CPU 0 instructions: 130000017 cycles: 54876534 heartbeat IPC: 2.454 cumulative IPC: 1.893 (Simulation time: 00 hr 10 min 02 sec)
Heartbeat CPU 0 instructions: 140000021 cycles: 62086084 heartbeat IPC: 1.387 cumulative IPC: 1.819 (Simulation time: 00 hr 10 min 48 sec)
Simulation finished CPU 0 instructions: 100000000 cycles: 54301479 cumulative IPC: 1.842 (Simulation time: 00 hr 11 min 44 sec)
Simulation complete CPU 0 instructions: 100000000 cycles: 54301479 cumulative IPC: 1.842 (Simulation time: 00 hr 11 min 44 sec)

ChampSim completed all CPUs

=== Simulation ===
CPU 0 runs /home/zevs_gromovergec/Programming/Interview/Sber/Programming_modulating/ChampSim/tracers/625.x264_s-39B.champsimtrace.xz

Region of Interest Statistics

CPU 0 cumulative IPC: 1.842 instructions: 100000000 cycles: 54301479
CPU 0 Branch Prediction Accuracy: 91.33% MPKI: 3.491 Average ROB Occupancy at Mispredict: 77.94
Branch type MPKI
BRANCH_DIRECT_JUMP: 0.0026
BRANCH_INDIRECT: 0.00318
BRANCH_CONDITIONAL: 3.316
BRANCH_DIRECT_CALL: 0.0024
BRANCH_INDIRECT_CALL: 0.06673
BRANCH_RETURN: 0.1004

cpu0->cpu0_STLB TOTAL        ACCESS:      92245 HIT:      89767 MISS:       2478 MSHR_MERGE:          0
cpu0->cpu0_STLB LOAD         ACCESS:      92245 HIT:      89767 MISS:       2478 MSHR_MERGE:          0
cpu0->cpu0_STLB RFO          ACCESS:          0 HIT:          0 MISS:          0 MSHR_MERGE:          0
cpu0->cpu0_STLB PREFETCH     ACCESS:          0 HIT:          0 MISS:          0 MSHR_MERGE:          0
cpu0->cpu0_STLB WRITE        ACCESS:          0 HIT:          0 MISS:          0 MSHR_MERGE:          0
cpu0->cpu0_STLB TRANSLATION  ACCESS:          0 HIT:          0 MISS:          0 MSHR_MERGE:          0
cpu0->cpu0_STLB PREFETCH REQUESTED:          0 ISSUED:          0 USEFUL:          0 USELESS:          0
cpu0->cpu0_STLB AVERAGE MISS LATENCY: 743.5 cycles
cpu0->cpu0_L2C TOTAL        ACCESS:     847610 HIT:     544633 MISS:     302977 MSHR_MERGE:          0
cpu0->cpu0_L2C LOAD         ACCESS:     643122 HIT:     474468 MISS:     168654 MSHR_MERGE:          0
cpu0->cpu0_L2C RFO          ACCESS:      86007 HIT:      14601 MISS:      71406 MSHR_MERGE:          0
cpu0->cpu0_L2C PREFETCH     ACCESS:          0 HIT:          0 MISS:          0 MSHR_MERGE:          0
cpu0->cpu0_L2C WRITE        ACCESS:     114956 HIT:      55560 MISS:      59396 MSHR_MERGE:          0
cpu0->cpu0_L2C TRANSLATION  ACCESS:       3525 HIT:          4 MISS:       3521 MSHR_MERGE:          0
cpu0->cpu0_L2C PREFETCH REQUESTED:          0 ISSUED:          0 USEFUL:          0 USELESS:          0
cpu0->cpu0_L2C AVERAGE MISS LATENCY: 155.1 cycles
cpu0->cpu0_L1I TOTAL        ACCESS:   11186622 HIT:   10448344 MISS:     738278 MSHR_MERGE:     292479
cpu0->cpu0_L1I LOAD         ACCESS:   11186622 HIT:   10448344 MISS:     738278 MSHR_MERGE:     292479
cpu0->cpu0_L1I RFO          ACCESS:          0 HIT:          0 MISS:          0 MSHR_MERGE:          0
cpu0->cpu0_L1I PREFETCH     ACCESS:          0 HIT:          0 MISS:          0 MSHR_MERGE:          0
cpu0->cpu0_L1I WRITE        ACCESS:          0 HIT:          0 MISS:          0 MSHR_MERGE:          0
cpu0->cpu0_L1I TRANSLATION  ACCESS:          0 HIT:          0 MISS:          0 MSHR_MERGE:          0
cpu0->cpu0_L1I PREFETCH REQUESTED:          0 ISSUED:          0 USEFUL:          0 USELESS:          0
cpu0->cpu0_L1I AVERAGE MISS LATENCY: 7.785 cycles
cpu0->cpu0_L1D TOTAL        ACCESS:   21704374 HIT:   20599565 MISS:    1104809 MSHR_MERGE:     817953
cpu0->cpu0_L1D LOAD         ACCESS:   15030778 HIT:   14588571 MISS:     442207 MSHR_MERGE:     244884
cpu0->cpu0_L1D RFO          ACCESS:          0 HIT:          0 MISS:          0 MSHR_MERGE:          0
cpu0->cpu0_L1D PREFETCH     ACCESS:          0 HIT:          0 MISS:          0 MSHR_MERGE:          0
cpu0->cpu0_L1D WRITE        ACCESS:    6668621 HIT:    6009635 MISS:     658986 MSHR_MERGE:     572978
cpu0->cpu0_L1D TRANSLATION  ACCESS:       4975 HIT:       1359 MISS:       3616 MSHR_MERGE:         91
cpu0->cpu0_L1D PREFETCH REQUESTED:          0 ISSUED:          0 USEFUL:          0 USELESS:          0
cpu0->cpu0_L1D AVERAGE MISS LATENCY: 170.9 cycles
cpu0->cpu0_ITLB TOTAL        ACCESS:    9850350 HIT:    9846916 MISS:       3434 MSHR_MERGE:       2413
cpu0->cpu0_ITLB LOAD         ACCESS:    9850350 HIT:    9846916 MISS:       3434 MSHR_MERGE:       2413
cpu0->cpu0_ITLB RFO          ACCESS:          0 HIT:          0 MISS:          0 MSHR_MERGE:          0
cpu0->cpu0_ITLB PREFETCH     ACCESS:          0 HIT:          0 MISS:          0 MSHR_MERGE:          0
cpu0->cpu0_ITLB WRITE        ACCESS:          0 HIT:          0 MISS:          0 MSHR_MERGE:          0
cpu0->cpu0_ITLB TRANSLATION  ACCESS:          0 HIT:          0 MISS:          0 MSHR_MERGE:          0
cpu0->cpu0_ITLB PREFETCH REQUESTED:          0 ISSUED:          0 USEFUL:          0 USELESS:          0
cpu0->cpu0_ITLB AVERAGE MISS LATENCY: 56.28 cycles
cpu0->cpu0_DTLB TOTAL        ACCESS:   20556519 HIT:   20365377 MISS:     191142 MSHR_MERGE:      99918
cpu0->cpu0_DTLB LOAD         ACCESS:   20556519 HIT:   20365377 MISS:     191142 MSHR_MERGE:      99918
cpu0->cpu0_DTLB RFO          ACCESS:          0 HIT:          0 MISS:          0 MSHR_MERGE:          0
cpu0->cpu0_DTLB PREFETCH     ACCESS:          0 HIT:          0 MISS:          0 MSHR_MERGE:          0
cpu0->cpu0_DTLB WRITE        ACCESS:          0 HIT:          0 MISS:          0 MSHR_MERGE:          0
cpu0->cpu0_DTLB TRANSLATION  ACCESS:          0 HIT:          0 MISS:          0 MSHR_MERGE:          0
cpu0->cpu0_DTLB PREFETCH REQUESTED:          0 ISSUED:          0 USEFUL:          0 USELESS:          0
cpu0->cpu0_DTLB AVERAGE MISS LATENCY: 24.65 cycles
cpu0->LLC TOTAL        ACCESS:     337508 HIT:     148695 MISS:     188813 MSHR_MERGE:          0
cpu0->LLC LOAD         ACCESS:     168654 HIT:      56450 MISS:     112204 MSHR_MERGE:          0
cpu0->LLC RFO          ACCESS:      71406 HIT:        870 MISS:      70536 MSHR_MERGE:          0
cpu0->LLC PREFETCH     ACCESS:          0 HIT:          0 MISS:          0 MSHR_MERGE:          0
cpu0->LLC WRITE        ACCESS:      93927 HIT:      91334 MISS:       2593 MSHR_MERGE:          0
cpu0->LLC TRANSLATION  ACCESS:       3521 HIT:         41 MISS:       3480 MSHR_MERGE:          0
cpu0->LLC PREFETCH REQUESTED:          0 ISSUED:          0 USEFUL:          0 USELESS:          0
cpu0->LLC AVERAGE MISS LATENCY: 227.4 cycles

DRAM Statistics

Channel 0 RQ ROW_BUFFER_HIT:       3425
  ROW_BUFFER_MISS:     182763
  AVG DBUS CONGESTED CYCLE: 11.06
Channel 0 WQ ROW_BUFFER_HIT:      23497
  ROW_BUFFER_MISS:      64909
  FULL:          0
Channel 0 REFRESHES ISSUED:       4525
