[VMEM] WARNING: physical memory size is smaller than virtual memory size.

*** ChampSim Multicore Out-of-Order Simulator ***
Warmup Instructions: 50000000
Simulation Instructions: 100000000
Number of CPUs: 1
Page size: 4096

Off-chip DRAM Size: 16 GiB Channels: 1 Width: 64-bit Data Rate: 3205 MT/s
Heartbeat CPU 0 instructions: 10000000 cycles: 2560340 heartbeat IPC: 3.906 cumulative IPC: 3.906 (Simulation time: 00 hr 00 min 43 sec)
Heartbeat CPU 0 instructions: 20000001 cycles: 5072975 heartbeat IPC: 3.98 cumulative IPC: 3.942 (Simulation time: 00 hr 01 min 27 sec)
Heartbeat CPU 0 instructions: 30000002 cycles: 7590217 heartbeat IPC: 3.973 cumulative IPC: 3.952 (Simulation time: 00 hr 02 min 11 sec)
Heartbeat CPU 0 instructions: 40000002 cycles: 10102256 heartbeat IPC: 3.981 cumulative IPC: 3.96 (Simulation time: 00 hr 02 min 55 sec)
Warmup finished CPU 0 instructions: 50000000 cycles: 12616544 cumulative IPC: 3.963 (Simulation time: 00 hr 03 min 40 sec)
Warmup complete CPU 0 instructions: 50000000 cycles: 12616544 cumulative IPC: 3.963 (Simulation time: 00 hr 03 min 40 sec)
Heartbeat CPU 0 instructions: 50000004 cycles: 12616545 heartbeat IPC: 3.977 cumulative IPC: 4 (Simulation time: 00 hr 03 min 40 sec)
Heartbeat CPU 0 instructions: 60000008 cycles: 16919358 heartbeat IPC: 2.324 cumulative IPC: 2.324 (Simulation time: 00 hr 04 min 34 sec)
Heartbeat CPU 0 instructions: 70000010 cycles: 21272545 heartbeat IPC: 2.297 cumulative IPC: 2.311 (Simulation time: 00 hr 05 min 29 sec)
Heartbeat CPU 0 instructions: 80000011 cycles: 25583239 heartbeat IPC: 2.32 cumulative IPC: 2.314 (Simulation time: 00 hr 06 min 24 sec)
Heartbeat CPU 0 instructions: 90000012 cycles: 29907041 heartbeat IPC: 2.313 cumulative IPC: 2.313 (Simulation time: 00 hr 07 min 19 sec)
Heartbeat CPU 0 instructions: 100000012 cycles: 34137243 heartbeat IPC: 2.364 cumulative IPC: 2.323 (Simulation time: 00 hr 08 min 00 sec)
Heartbeat CPU 0 instructions: 110000015 cycles: 38267620 heartbeat IPC: 2.421 cumulative IPC: 2.339 (Simulation time: 00 hr 08 min 54 sec)
Heartbeat CPU 0 instructions: 120000016 cycles: 51005746 heartbeat IPC: 0.785 cumulative IPC: 1.823 (Simulation time: 00 hr 11 min 06 sec)
Heartbeat CPU 0 instructions: 130000017 cycles: 55080604 heartbeat IPC: 2.454 cumulative IPC: 1.884 (Simulation time: 00 hr 12 min 04 sec)
Heartbeat CPU 0 instructions: 140000021 cycles: 62311089 heartbeat IPC: 1.383 cumulative IPC: 1.811 (Simulation time: 00 hr 13 min 22 sec)
Simulation finished CPU 0 instructions: 100000000 cycles: 54606901 cumulative IPC: 1.831 (Simulation time: 00 hr 14 min 23 sec)
Simulation complete CPU 0 instructions: 100000000 cycles: 54606901 cumulative IPC: 1.831 (Simulation time: 00 hr 14 min 23 sec)

ChampSim completed all CPUs

=== Simulation ===
CPU 0 runs /home/zevs_gromovergec/Programming/Interview/Sber/Programming_modulating/ChampSim/tracers/625.x264_s-39B.champsimtrace.xz

Region of Interest Statistics

CPU 0 cumulative IPC: 1.831 instructions: 100000000 cycles: 54606901
CPU 0 Branch Prediction Accuracy: 91.33% MPKI: 3.491 Average ROB Occupancy at Mispredict: 77.96
Branch type MPKI
BRANCH_DIRECT_JUMP: 0.0026
BRANCH_INDIRECT: 0.00318
BRANCH_CONDITIONAL: 3.316
BRANCH_DIRECT_CALL: 0.0024
BRANCH_INDIRECT_CALL: 0.06673
BRANCH_RETURN: 0.1004

cpu0->cpu0_STLB TOTAL        ACCESS:      92248 HIT:      89769 MISS:       2479 MSHR_MERGE:          0
cpu0->cpu0_STLB LOAD         ACCESS:      92248 HIT:      89769 MISS:       2479 MSHR_MERGE:          0
cpu0->cpu0_STLB RFO          ACCESS:          0 HIT:          0 MISS:          0 MSHR_MERGE:          0
cpu0->cpu0_STLB PREFETCH     ACCESS:          0 HIT:          0 MISS:          0 MSHR_MERGE:          0
cpu0->cpu0_STLB WRITE        ACCESS:          0 HIT:          0 MISS:          0 MSHR_MERGE:          0
cpu0->cpu0_STLB TRANSLATION  ACCESS:          0 HIT:          0 MISS:          0 MSHR_MERGE:          0
cpu0->cpu0_STLB PREFETCH REQUESTED:          0 ISSUED:          0 USEFUL:          0 USELESS:          0
cpu0->cpu0_STLB AVERAGE MISS LATENCY: 739.6 cycles
cpu0->cpu0_L2C TOTAL        ACCESS:     847645 HIT:     566036 MISS:     281609 MSHR_MERGE:          0
cpu0->cpu0_L2C LOAD         ACCESS:     643173 HIT:     444132 MISS:     199041 MSHR_MERGE:          0
cpu0->cpu0_L2C RFO          ACCESS:      86006 HIT:      12145 MISS:      73861 MSHR_MERGE:          0
cpu0->cpu0_L2C PREFETCH     ACCESS:          0 HIT:          0 MISS:          0 MSHR_MERGE:          0
cpu0->cpu0_L2C WRITE        ACCESS:     114940 HIT:     109752 MISS:       5188 MSHR_MERGE:          0
cpu0->cpu0_L2C TRANSLATION  ACCESS:       3526 HIT:          7 MISS:       3519 MSHR_MERGE:          0
cpu0->cpu0_L2C PREFETCH REQUESTED:          0 ISSUED:          0 USEFUL:          0 USELESS:          0
cpu0->cpu0_L2C AVERAGE MISS LATENCY: 170 cycles
cpu0->cpu0_L1I TOTAL        ACCESS:   11181114 HIT:   10446023 MISS:     735091 MSHR_MERGE:     289268
cpu0->cpu0_L1I LOAD         ACCESS:   11181114 HIT:   10446023 MISS:     735091 MSHR_MERGE:     289268
cpu0->cpu0_L1I RFO          ACCESS:          0 HIT:          0 MISS:          0 MSHR_MERGE:          0
cpu0->cpu0_L1I PREFETCH     ACCESS:          0 HIT:          0 MISS:          0 MSHR_MERGE:          0
cpu0->cpu0_L1I WRITE        ACCESS:          0 HIT:          0 MISS:          0 MSHR_MERGE:          0
cpu0->cpu0_L1I TRANSLATION  ACCESS:          0 HIT:          0 MISS:          0 MSHR_MERGE:          0
cpu0->cpu0_L1I PREFETCH REQUESTED:          0 ISSUED:          0 USEFUL:          0 USELESS:          0
cpu0->cpu0_L1I AVERAGE MISS LATENCY: 8.938 cycles
cpu0->cpu0_L1D TOTAL        ACCESS:   21711111 HIT:   20602220 MISS:    1108891 MSHR_MERGE:     822007
cpu0->cpu0_L1D LOAD         ACCESS:   15037562 HIT:   14593604 MISS:     443958 MSHR_MERGE:     246608
cpu0->cpu0_L1D RFO          ACCESS:          0 HIT:          0 MISS:          0 MSHR_MERGE:          0
cpu0->cpu0_L1D PREFETCH     ACCESS:          0 HIT:          0 MISS:          0 MSHR_MERGE:          0
cpu0->cpu0_L1D WRITE        ACCESS:    6668572 HIT:    6007254 MISS:     661318 MSHR_MERGE:     575310
cpu0->cpu0_L1D TRANSLATION  ACCESS:       4977 HIT:       1362 MISS:       3615 MSHR_MERGE:         89
cpu0->cpu0_L1D PREFETCH REQUESTED:          0 ISSUED:          0 USEFUL:          0 USELESS:          0
cpu0->cpu0_L1D AVERAGE MISS LATENCY: 172.9 cycles
cpu0->cpu0_ITLB TOTAL        ACCESS:    9840402 HIT:    9837031 MISS:       3371 MSHR_MERGE:       2350
cpu0->cpu0_ITLB LOAD         ACCESS:    9840402 HIT:    9837031 MISS:       3371 MSHR_MERGE:       2350
cpu0->cpu0_ITLB RFO          ACCESS:          0 HIT:          0 MISS:          0 MSHR_MERGE:          0
cpu0->cpu0_ITLB PREFETCH     ACCESS:          0 HIT:          0 MISS:          0 MSHR_MERGE:          0
cpu0->cpu0_ITLB WRITE        ACCESS:          0 HIT:          0 MISS:          0 MSHR_MERGE:          0
cpu0->cpu0_ITLB TRANSLATION  ACCESS:          0 HIT:          0 MISS:          0 MSHR_MERGE:          0
cpu0->cpu0_ITLB PREFETCH REQUESTED:          0 ISSUED:          0 USEFUL:          0 USELESS:          0
cpu0->cpu0_ITLB AVERAGE MISS LATENCY: 57.81 cycles
cpu0->cpu0_DTLB TOTAL        ACCESS:   20564231 HIT:   20372860 MISS:     191371 MSHR_MERGE:     100144
cpu0->cpu0_DTLB LOAD         ACCESS:   20564231 HIT:   20372860 MISS:     191371 MSHR_MERGE:     100144
cpu0->cpu0_DTLB RFO          ACCESS:          0 HIT:          0 MISS:          0 MSHR_MERGE:          0
cpu0->cpu0_DTLB PREFETCH     ACCESS:          0 HIT:          0 MISS:          0 MSHR_MERGE:          0
cpu0->cpu0_DTLB WRITE        ACCESS:          0 HIT:          0 MISS:          0 MSHR_MERGE:          0
cpu0->cpu0_DTLB TRANSLATION  ACCESS:          0 HIT:          0 MISS:          0 MSHR_MERGE:          0
cpu0->cpu0_DTLB PREFETCH REQUESTED:          0 ISSUED:          0 USEFUL:          0 USELESS:          0
cpu0->cpu0_DTLB AVERAGE MISS LATENCY: 24.53 cycles
cpu0->LLC TOTAL        ACCESS:     377989 HIT:     190026 MISS:     187963 MSHR_MERGE:          0
cpu0->LLC LOAD         ACCESS:     199041 HIT:      85318 MISS:     113723 MSHR_MERGE:          0
cpu0->LLC RFO          ACCESS:      73861 HIT:       3131 MISS:      70730 MSHR_MERGE:          0
cpu0->LLC PREFETCH     ACCESS:          0 HIT:          0 MISS:          0 MSHR_MERGE:          0
cpu0->LLC WRITE        ACCESS:     101568 HIT:     101541 MISS:         27 MSHR_MERGE:          0
cpu0->LLC TRANSLATION  ACCESS:       3519 HIT:         36 MISS:       3483 MSHR_MERGE:          0
cpu0->LLC PREFETCH REQUESTED:          0 ISSUED:          0 USEFUL:          0 USELESS:          0
cpu0->LLC AVERAGE MISS LATENCY: 231.4 cycles

DRAM Statistics

Channel 0 RQ ROW_BUFFER_HIT:       3504
  ROW_BUFFER_MISS:     184402
  AVG DBUS CONGESTED CYCLE: 10.93
Channel 0 WQ ROW_BUFFER_HIT:      24080
  ROW_BUFFER_MISS:      67551
  FULL:          0
Channel 0 REFRESHES ISSUED:       4550
