[VMEM] WARNING: physical memory size is smaller than virtual memory size.

*** ChampSim Multicore Out-of-Order Simulator ***
Warmup Instructions: 50000000
Simulation Instructions: 100000000
Number of CPUs: 1
Page size: 4096

Initialize SIGNATURE TABLE
ST_SET: 1
ST_WAY: 256
ST_TAG_BIT: 16

Initialize PATTERN TABLE
PT_SET: 512
PT_WAY: 4
SIG_DELTA_BIT: 7
C_SIG_BIT: 4
C_DELTA_BIT: 4

Initialize PREFETCH FILTER
FILTER_SET: 1024
Off-chip DRAM Size: 16 GiB Channels: 1 Width: 64-bit Data Rate: 3205 MT/s
Heartbeat CPU 0 instructions: 10000000 cycles: 2558397 heartbeat IPC: 3.909 cumulative IPC: 3.909 (Simulation time: 00 hr 00 min 53 sec)
Heartbeat CPU 0 instructions: 20000003 cycles: 5147711 heartbeat IPC: 3.862 cumulative IPC: 3.885 (Simulation time: 00 hr 01 min 46 sec)
Heartbeat CPU 0 instructions: 30000004 cycles: 7660409 heartbeat IPC: 3.98 cumulative IPC: 3.916 (Simulation time: 00 hr 02 min 40 sec)
Heartbeat CPU 0 instructions: 40000005 cycles: 10175741 heartbeat IPC: 3.976 cumulative IPC: 3.931 (Simulation time: 00 hr 03 min 34 sec)
Warmup finished CPU 0 instructions: 50000003 cycles: 12679501 cumulative IPC: 3.943 (Simulation time: 00 hr 04 min 29 sec)
Warmup complete CPU 0 instructions: 50000003 cycles: 12679501 cumulative IPC: 3.943 (Simulation time: 00 hr 04 min 29 sec)
Heartbeat CPU 0 instructions: 50000008 cycles: 12679502 heartbeat IPC: 3.994 cumulative IPC: 5 (Simulation time: 00 hr 04 min 29 sec)
Heartbeat CPU 0 instructions: 60000009 cycles: 17379064 heartbeat IPC: 2.128 cumulative IPC: 2.128 (Simulation time: 00 hr 05 min 47 sec)
Heartbeat CPU 0 instructions: 70000010 cycles: 22405551 heartbeat IPC: 1.989 cumulative IPC: 2.056 (Simulation time: 00 hr 07 min 07 sec)
Heartbeat CPU 0 instructions: 80000014 cycles: 27430583 heartbeat IPC: 1.99 cumulative IPC: 2.034 (Simulation time: 00 hr 08 min 26 sec)
Heartbeat CPU 0 instructions: 90000014 cycles: 32496862 heartbeat IPC: 1.974 cumulative IPC: 2.018 (Simulation time: 00 hr 09 min 46 sec)
Heartbeat CPU 0 instructions: 100000015 cycles: 37517487 heartbeat IPC: 1.992 cumulative IPC: 2.013 (Simulation time: 00 hr 11 min 05 sec)
Heartbeat CPU 0 instructions: 110000017 cycles: 42541110 heartbeat IPC: 1.991 cumulative IPC: 2.009 (Simulation time: 00 hr 12 min 24 sec)
Heartbeat CPU 0 instructions: 120000021 cycles: 47566833 heartbeat IPC: 1.99 cumulative IPC: 2.006 (Simulation time: 00 hr 13 min 44 sec)
Heartbeat CPU 0 instructions: 130000022 cycles: 52591737 heartbeat IPC: 1.99 cumulative IPC: 2.004 (Simulation time: 00 hr 15 min 03 sec)
Heartbeat CPU 0 instructions: 140000024 cycles: 57631363 heartbeat IPC: 1.984 cumulative IPC: 2.002 (Simulation time: 00 hr 16 min 22 sec)
Simulation finished CPU 0 instructions: 100000004 cycles: 49975361 cumulative IPC: 2.001 (Simulation time: 00 hr 17 min 33 sec)
Simulation complete CPU 0 instructions: 100000004 cycles: 49975361 cumulative IPC: 2.001 (Simulation time: 00 hr 17 min 33 sec)

ChampSim completed all CPUs

=== Simulation ===
CPU 0 runs /home/zevs_gromovergec/Programming/Interview/Sber/Programming_modulating/ChampSim/tracers/456.hmmer-327B.champsimtrace.xz

Region of Interest Statistics

CPU 0 cumulative IPC: 2.001 instructions: 100000004 cycles: 49975361
CPU 0 Branch Prediction Accuracy: 99.38% MPKI: 0.2744 Average ROB Occupancy at Mispredict: 104.8
Branch type MPKI
BRANCH_DIRECT_JUMP: 2e-05
BRANCH_INDIRECT: 0.00042
BRANCH_CONDITIONAL: 0.2738
BRANCH_DIRECT_CALL: 4e-05
BRANCH_INDIRECT_CALL: 0.0001
BRANCH_RETURN: 5e-05

cpu0->cpu0_STLB TOTAL        ACCESS:       6566 HIT:       6432 MISS:        134 MSHR_MERGE:          0
cpu0->cpu0_STLB LOAD         ACCESS:       6566 HIT:       6432 MISS:        134 MSHR_MERGE:          0
cpu0->cpu0_STLB RFO          ACCESS:          0 HIT:          0 MISS:          0 MSHR_MERGE:          0
cpu0->cpu0_STLB PREFETCH     ACCESS:          0 HIT:          0 MISS:          0 MSHR_MERGE:          0
cpu0->cpu0_STLB WRITE        ACCESS:          0 HIT:          0 MISS:          0 MSHR_MERGE:          0
cpu0->cpu0_STLB TRANSLATION  ACCESS:          0 HIT:          0 MISS:          0 MSHR_MERGE:          0
cpu0->cpu0_STLB PREFETCH REQUESTED:          0 ISSUED:          0 USEFUL:          0 USELESS:          0
cpu0->cpu0_STLB AVERAGE MISS LATENCY: 679.8 cycles
cpu0->cpu0_L2C TOTAL        ACCESS:    1360164 HIT:     814691 MISS:     545473 MSHR_MERGE:       1341
cpu0->cpu0_L2C LOAD         ACCESS:     147634 HIT:     140417 MISS:       7217 MSHR_MERGE:         24
cpu0->cpu0_L2C RFO          ACCESS:     266400 HIT:       4519 MISS:     261881 MSHR_MERGE:          0
cpu0->cpu0_L2C PREFETCH     ACCESS:     678895 HIT:     652776 MISS:      26119 MSHR_MERGE:       1317
cpu0->cpu0_L2C WRITE        ACCESS:     267065 HIT:      16976 MISS:     250089 MSHR_MERGE:          0
cpu0->cpu0_L2C TRANSLATION  ACCESS:        170 HIT:          3 MISS:        167 MSHR_MERGE:          0
cpu0->cpu0_L2C PREFETCH REQUESTED:     678916 ISSUED:     678895 USEFUL:        533 USELESS:        778
cpu0->cpu0_L2C AVERAGE MISS LATENCY: 36.8 cycles
cpu0->cpu0_L1I TOTAL        ACCESS:   19606525 HIT:   19606520 MISS:          5 MSHR_MERGE:          0
cpu0->cpu0_L1I LOAD         ACCESS:   19606525 HIT:   19606520 MISS:          5 MSHR_MERGE:          0
cpu0->cpu0_L1I RFO          ACCESS:          0 HIT:          0 MISS:          0 MSHR_MERGE:          0
cpu0->cpu0_L1I PREFETCH     ACCESS:          0 HIT:          0 MISS:          0 MSHR_MERGE:          0
cpu0->cpu0_L1I WRITE        ACCESS:          0 HIT:          0 MISS:          0 MSHR_MERGE:          0
cpu0->cpu0_L1I TRANSLATION  ACCESS:          0 HIT:          0 MISS:          0 MSHR_MERGE:          0
cpu0->cpu0_L1I PREFETCH REQUESTED:          0 ISSUED:          0 USEFUL:          0 USELESS:          0
cpu0->cpu0_L1I AVERAGE MISS LATENCY: 164.2 cycles
cpu0->cpu0_L1D TOTAL        ACCESS:   44463970 HIT:   42217576 MISS:    2246394 MSHR_MERGE:    1832195
cpu0->cpu0_L1D LOAD         ACCESS:   31495984 HIT:   31343376 MISS:     152608 MSHR_MERGE:       4979
cpu0->cpu0_L1D RFO          ACCESS:          0 HIT:          0 MISS:          0 MSHR_MERGE:          0
cpu0->cpu0_L1D PREFETCH     ACCESS:          0 HIT:          0 MISS:          0 MSHR_MERGE:          0
cpu0->cpu0_L1D WRITE        ACCESS:   12967718 HIT:   10874102 MISS:    2093616 MSHR_MERGE:    1827216
cpu0->cpu0_L1D TRANSLATION  ACCESS:        268 HIT:         98 MISS:        170 MSHR_MERGE:          0
cpu0->cpu0_L1D PREFETCH REQUESTED:          0 ISSUED:          0 USEFUL:          0 USELESS:          0
cpu0->cpu0_L1D AVERAGE MISS LATENCY: 52.39 cycles
cpu0->cpu0_ITLB TOTAL        ACCESS:   18127187 HIT:   18127185 MISS:          2 MSHR_MERGE:          1
cpu0->cpu0_ITLB LOAD         ACCESS:   18127187 HIT:   18127185 MISS:          2 MSHR_MERGE:          1
cpu0->cpu0_ITLB RFO          ACCESS:          0 HIT:          0 MISS:          0 MSHR_MERGE:          0
cpu0->cpu0_ITLB PREFETCH     ACCESS:          0 HIT:          0 MISS:          0 MSHR_MERGE:          0
cpu0->cpu0_ITLB WRITE        ACCESS:          0 HIT:          0 MISS:          0 MSHR_MERGE:          0
cpu0->cpu0_ITLB TRANSLATION  ACCESS:          0 HIT:          0 MISS:          0 MSHR_MERGE:          0
cpu0->cpu0_ITLB PREFETCH REQUESTED:          0 ISSUED:          0 USEFUL:          0 USELESS:          0
cpu0->cpu0_ITLB AVERAGE MISS LATENCY: 870 cycles
cpu0->cpu0_DTLB TOTAL        ACCESS:   42342181 HIT:   42330603 MISS:      11578 MSHR_MERGE:       5013
cpu0->cpu0_DTLB LOAD         ACCESS:   42342181 HIT:   42330603 MISS:      11578 MSHR_MERGE:       5013
cpu0->cpu0_DTLB RFO          ACCESS:          0 HIT:          0 MISS:          0 MSHR_MERGE:          0
cpu0->cpu0_DTLB PREFETCH     ACCESS:          0 HIT:          0 MISS:          0 MSHR_MERGE:          0
cpu0->cpu0_DTLB WRITE        ACCESS:          0 HIT:          0 MISS:          0 MSHR_MERGE:          0
cpu0->cpu0_DTLB TRANSLATION  ACCESS:          0 HIT:          0 MISS:          0 MSHR_MERGE:          0
cpu0->cpu0_DTLB PREFETCH REQUESTED:          0 ISSUED:          0 USEFUL:          0 USELESS:          0
cpu0->cpu0_DTLB AVERAGE MISS LATENCY: 18.77 cycles
cpu0->LLC TOTAL        ACCESS:     556111 HIT:     479894 MISS:      76217 MSHR_MERGE:        206
cpu0->LLC LOAD         ACCESS:       7193 HIT:       7010 MISS:        183 MSHR_MERGE:         14
cpu0->LLC RFO          ACCESS:     261881 HIT:     187103 MISS:      74778 MSHR_MERGE:          1
cpu0->LLC PREFETCH     ACCESS:      24685 HIT:      23672 MISS:       1013 MSHR_MERGE:        191
cpu0->LLC WRITE        ACCESS:     262185 HIT:     262101 MISS:         84 MSHR_MERGE:          0
cpu0->LLC TRANSLATION  ACCESS:        167 HIT:          8 MISS:        159 MSHR_MERGE:          0
cpu0->LLC PREFETCH REQUESTED:          0 ISSUED:          0 USEFUL:          0 USELESS:          0
cpu0->LLC AVERAGE MISS LATENCY: 186 cycles

DRAM Statistics

Channel 0 RQ ROW_BUFFER_HIT:         16
  ROW_BUFFER_MISS:      75906
  AVG DBUS CONGESTED CYCLE: 6.685
Channel 0 WQ ROW_BUFFER_HIT:       1097
  ROW_BUFFER_MISS:      72578
  FULL:          0
Channel 0 REFRESHES ISSUED:       4165
