[VMEM] WARNING: physical memory size is smaller than virtual memory size.

*** ChampSim Multicore Out-of-Order Simulator ***
Warmup Instructions: 50000000
Simulation Instructions: 100000000
Number of CPUs: 1
Page size: 4096

Off-chip DRAM Size: 16 GiB Channels: 1 Width: 64-bit Data Rate: 3205 MT/s
Heartbeat CPU 0 instructions: 10000001 cycles: 2722396 heartbeat IPC: 3.673 cumulative IPC: 3.673 (Simulation time: 00 hr 00 min 31 sec)
Heartbeat CPU 0 instructions: 20000004 cycles: 5352561 heartbeat IPC: 3.802 cumulative IPC: 3.737 (Simulation time: 00 hr 01 min 00 sec)
Heartbeat CPU 0 instructions: 30000006 cycles: 7991250 heartbeat IPC: 3.79 cumulative IPC: 3.754 (Simulation time: 00 hr 01 min 29 sec)
Heartbeat CPU 0 instructions: 40000010 cycles: 10628805 heartbeat IPC: 3.791 cumulative IPC: 3.763 (Simulation time: 00 hr 01 min 59 sec)
Warmup finished CPU 0 instructions: 50000000 cycles: 13266341 cumulative IPC: 3.769 (Simulation time: 00 hr 02 min 31 sec)
Warmup complete CPU 0 instructions: 50000000 cycles: 13266341 cumulative IPC: 3.769 (Simulation time: 00 hr 02 min 31 sec)
Heartbeat CPU 0 instructions: 50000010 cycles: 13266343 heartbeat IPC: 3.791 cumulative IPC: 5 (Simulation time: 00 hr 02 min 31 sec)
Heartbeat CPU 0 instructions: 60000012 cycles: 32929119 heartbeat IPC: 0.5086 cumulative IPC: 0.5086 (Simulation time: 00 hr 05 min 40 sec)
Heartbeat CPU 0 instructions: 70000015 cycles: 61125689 heartbeat IPC: 0.3547 cumulative IPC: 0.4179 (Simulation time: 00 hr 09 min 45 sec)
Heartbeat CPU 0 instructions: 80000019 cycles: 89306612 heartbeat IPC: 0.3549 cumulative IPC: 0.3945 (Simulation time: 00 hr 14 min 14 sec)
Heartbeat CPU 0 instructions: 90000020 cycles: 117534420 heartbeat IPC: 0.3543 cumulative IPC: 0.3836 (Simulation time: 00 hr 18 min 37 sec)
Heartbeat CPU 0 instructions: 100000024 cycles: 145148597 heartbeat IPC: 0.3621 cumulative IPC: 0.3791 (Simulation time: 00 hr 22 min 28 sec)
Heartbeat CPU 0 instructions: 110000024 cycles: 159581974 heartbeat IPC: 0.6928 cumulative IPC: 0.4101 (Simulation time: 00 hr 24 min 01 sec)
Heartbeat CPU 0 instructions: 120000024 cycles: 168310950 heartbeat IPC: 1.146 cumulative IPC: 0.4515 (Simulation time: 00 hr 24 min 57 sec)
Heartbeat CPU 0 instructions: 130000026 cycles: 177465817 heartbeat IPC: 1.092 cumulative IPC: 0.4872 (Simulation time: 00 hr 25 min 53 sec)
Heartbeat CPU 0 instructions: 140000026 cycles: 186626224 heartbeat IPC: 1.092 cumulative IPC: 0.5192 (Simulation time: 00 hr 26 min 49 sec)
Simulation finished CPU 0 instructions: 100000004 cycles: 182540479 cumulative IPC: 0.5478 (Simulation time: 00 hr 27 min 43 sec)
Simulation complete CPU 0 instructions: 100000004 cycles: 182540479 cumulative IPC: 0.5478 (Simulation time: 00 hr 27 min 43 sec)

ChampSim completed all CPUs

=== Simulation ===
CPU 0 runs ./tracers/437.leslie3d-149B.champsimtrace.xz

Region of Interest Statistics

CPU 0 cumulative IPC: 0.5478 instructions: 100000004 cycles: 182540479
CPU 0 Branch Prediction Accuracy: 99.05% MPKI: 0.353 Average ROB Occupancy at Mispredict: 300.2
Branch type MPKI
BRANCH_DIRECT_JUMP: 0.00026
BRANCH_INDIRECT: 0
BRANCH_CONDITIONAL: 0.3518
BRANCH_DIRECT_CALL: 0.00046
BRANCH_INDIRECT_CALL: 0
BRANCH_RETURN: 0.00043

cpu0->cpu0_STLB TOTAL        ACCESS:      30954 HIT:       4809 MISS:      26145 MSHR_MERGE:          0
cpu0->cpu0_STLB LOAD         ACCESS:      30954 HIT:       4809 MISS:      26145 MSHR_MERGE:          0
cpu0->cpu0_STLB RFO          ACCESS:          0 HIT:          0 MISS:          0 MSHR_MERGE:          0
cpu0->cpu0_STLB PREFETCH     ACCESS:          0 HIT:          0 MISS:          0 MSHR_MERGE:          0
cpu0->cpu0_STLB WRITE        ACCESS:          0 HIT:          0 MISS:          0 MSHR_MERGE:          0
cpu0->cpu0_STLB TRANSLATION  ACCESS:          0 HIT:          0 MISS:          0 MSHR_MERGE:          0
cpu0->cpu0_STLB PREFETCH REQUESTED:          0 ISSUED:          0 USEFUL:          0 USELESS:          0
cpu0->cpu0_STLB AVERAGE MISS LATENCY: 475.9 cycles
cpu0->cpu0_L2C TOTAL        ACCESS:    1630971 HIT:     557301 MISS:    1073670 MSHR_MERGE:          0
cpu0->cpu0_L2C LOAD         ACCESS:     731557 HIT:      30399 MISS:     701158 MSHR_MERGE:          0
cpu0->cpu0_L2C RFO          ACCESS:     356175 HIT:      14547 MISS:     341628 MSHR_MERGE:          0
cpu0->cpu0_L2C PREFETCH     ACCESS:          0 HIT:          0 MISS:          0 MSHR_MERGE:          0
cpu0->cpu0_L2C WRITE        ACCESS:     503224 HIT:     503189 MISS:         35 MSHR_MERGE:          0
cpu0->cpu0_L2C TRANSLATION  ACCESS:      40015 HIT:       9166 MISS:      30849 MSHR_MERGE:          0
cpu0->cpu0_L2C PREFETCH REQUESTED:          0 ISSUED:          0 USEFUL:          0 USELESS:          0
cpu0->cpu0_L2C AVERAGE MISS LATENCY: 221.9 cycles
cpu0->cpu0_L1I TOTAL        ACCESS:   16938293 HIT:   16937809 MISS:        484 MSHR_MERGE:        198
cpu0->cpu0_L1I LOAD         ACCESS:   16938293 HIT:   16937809 MISS:        484 MSHR_MERGE:        198
cpu0->cpu0_L1I RFO          ACCESS:          0 HIT:          0 MISS:          0 MSHR_MERGE:          0
cpu0->cpu0_L1I PREFETCH     ACCESS:          0 HIT:          0 MISS:          0 MSHR_MERGE:          0
cpu0->cpu0_L1I WRITE        ACCESS:          0 HIT:          0 MISS:          0 MSHR_MERGE:          0
cpu0->cpu0_L1I TRANSLATION  ACCESS:          0 HIT:          0 MISS:          0 MSHR_MERGE:          0
cpu0->cpu0_L1I PREFETCH REQUESTED:          0 ISSUED:          0 USEFUL:          0 USELESS:          0
cpu0->cpu0_L1I AVERAGE MISS LATENCY: 243.2 cycles
cpu0->cpu0_L1D TOTAL        ACCESS:   32202644 HIT:   28831128 MISS:    3371516 MSHR_MERGE:    2244054
cpu0->cpu0_L1D LOAD         ACCESS:   27441803 HIT:   25741396 MISS:    1700407 MSHR_MERGE:     969136
cpu0->cpu0_L1D RFO          ACCESS:          0 HIT:          0 MISS:          0 MSHR_MERGE:          0
cpu0->cpu0_L1D PREFETCH     ACCESS:          0 HIT:          0 MISS:          0 MSHR_MERGE:          0
cpu0->cpu0_L1D WRITE        ACCESS:    4708521 HIT:    3077431 MISS:    1631090 MSHR_MERGE:    1274914
cpu0->cpu0_L1D TRANSLATION  ACCESS:      52320 HIT:      12301 MISS:      40019 MSHR_MERGE:          4
cpu0->cpu0_L1D PREFETCH REQUESTED:          0 ISSUED:          0 USEFUL:          0 USELESS:          0
cpu0->cpu0_L1D AVERAGE MISS LATENCY: 220.2 cycles
cpu0->cpu0_ITLB TOTAL        ACCESS:   14435246 HIT:   14435202 MISS:         44 MSHR_MERGE:         29
cpu0->cpu0_ITLB LOAD         ACCESS:   14435246 HIT:   14435202 MISS:         44 MSHR_MERGE:         29
cpu0->cpu0_ITLB RFO          ACCESS:          0 HIT:          0 MISS:          0 MSHR_MERGE:          0
cpu0->cpu0_ITLB PREFETCH     ACCESS:          0 HIT:          0 MISS:          0 MSHR_MERGE:          0
cpu0->cpu0_ITLB WRITE        ACCESS:          0 HIT:          0 MISS:          0 MSHR_MERGE:          0
cpu0->cpu0_ITLB TRANSLATION  ACCESS:          0 HIT:          0 MISS:          0 MSHR_MERGE:          0
cpu0->cpu0_ITLB PREFETCH REQUESTED:          0 ISSUED:          0 USEFUL:          0 USELESS:          0
cpu0->cpu0_ITLB AVERAGE MISS LATENCY: 849.1 cycles
cpu0->cpu0_DTLB TOTAL        ACCESS:   31003510 HIT:   30910844 MISS:      92666 MSHR_MERGE:      61727
cpu0->cpu0_DTLB LOAD         ACCESS:   31003510 HIT:   30910844 MISS:      92666 MSHR_MERGE:      61727
cpu0->cpu0_DTLB RFO          ACCESS:          0 HIT:          0 MISS:          0 MSHR_MERGE:          0
cpu0->cpu0_DTLB PREFETCH     ACCESS:          0 HIT:          0 MISS:          0 MSHR_MERGE:          0
cpu0->cpu0_DTLB WRITE        ACCESS:          0 HIT:          0 MISS:          0 MSHR_MERGE:          0
cpu0->cpu0_DTLB TRANSLATION  ACCESS:          0 HIT:          0 MISS:          0 MSHR_MERGE:          0
cpu0->cpu0_DTLB PREFETCH REQUESTED:          0 ISSUED:          0 USEFUL:          0 USELESS:          0
cpu0->cpu0_DTLB AVERAGE MISS LATENCY: 407.6 cycles
cpu0->LLC TOTAL        ACCESS:    1556530 HIT:     485226 MISS:    1071304 MSHR_MERGE:          0
cpu0->LLC LOAD         ACCESS:     701158 HIT:       1586 MISS:     699572 MSHR_MERGE:          0
cpu0->LLC RFO          ACCESS:     341628 HIT:       2045 MISS:     339583 MSHR_MERGE:          0
cpu0->LLC PREFETCH     ACCESS:          0 HIT:          0 MISS:          0 MSHR_MERGE:          0
cpu0->LLC WRITE        ACCESS:     482895 HIT:     481283 MISS:       1612 MSHR_MERGE:          0
cpu0->LLC TRANSLATION  ACCESS:      30849 HIT:        312 MISS:      30537 MSHR_MERGE:          0
cpu0->LLC PREFETCH REQUESTED:          0 ISSUED:          0 USEFUL:          0 USELESS:          0
cpu0->LLC AVERAGE MISS LATENCY: 206.4 cycles

DRAM Statistics

Channel 0 RQ ROW_BUFFER_HIT:       1772
  ROW_BUFFER_MISS:    1067891
  AVG DBUS CONGESTED CYCLE: 10.5
Channel 0 WQ ROW_BUFFER_HIT:     162087
  ROW_BUFFER_MISS:     316307
  FULL:          0
Channel 0 REFRESHES ISSUED:      15212
