[VMEM] WARNING: physical memory size is smaller than virtual memory size.

*** ChampSim Multicore Out-of-Order Simulator ***
Warmup Instructions: 50000000
Simulation Instructions: 100000000
Number of CPUs: 1
Page size: 4096

Off-chip DRAM Size: 16 GiB Channels: 1 Width: 64-bit Data Rate: 3205 MT/s
Heartbeat CPU 0 instructions: 10000002 cycles: 2675477 heartbeat IPC: 3.738 cumulative IPC: 3.738 (Simulation time: 00 hr 00 min 51 sec)
Heartbeat CPU 0 instructions: 20000004 cycles: 5355880 heartbeat IPC: 3.731 cumulative IPC: 3.734 (Simulation time: 00 hr 01 min 42 sec)
Heartbeat CPU 0 instructions: 30000004 cycles: 8081683 heartbeat IPC: 3.669 cumulative IPC: 3.712 (Simulation time: 00 hr 02 min 33 sec)
Heartbeat CPU 0 instructions: 40000005 cycles: 10803209 heartbeat IPC: 3.674 cumulative IPC: 3.703 (Simulation time: 00 hr 03 min 23 sec)
Warmup finished CPU 0 instructions: 50000001 cycles: 13518109 cumulative IPC: 3.699 (Simulation time: 00 hr 04 min 14 sec)
Warmup complete CPU 0 instructions: 50000001 cycles: 13518109 cumulative IPC: 3.699 (Simulation time: 00 hr 04 min 14 sec)
Heartbeat CPU 0 instructions: 50000006 cycles: 13518110 heartbeat IPC: 3.683 cumulative IPC: 5 (Simulation time: 00 hr 04 min 14 sec)
Heartbeat CPU 0 instructions: 60000009 cycles: 23324017 heartbeat IPC: 1.02 cumulative IPC: 1.02 (Simulation time: 00 hr 06 min 28 sec)
Heartbeat CPU 0 instructions: 70000011 cycles: 33108860 heartbeat IPC: 1.022 cumulative IPC: 1.021 (Simulation time: 00 hr 08 min 42 sec)
Heartbeat CPU 0 instructions: 80000012 cycles: 42937421 heartbeat IPC: 1.017 cumulative IPC: 1.02 (Simulation time: 00 hr 10 min 58 sec)
Heartbeat CPU 0 instructions: 90000014 cycles: 64045005 heartbeat IPC: 0.4738 cumulative IPC: 0.7917 (Simulation time: 00 hr 15 min 06 sec)
Heartbeat CPU 0 instructions: 100000015 cycles: 87093718 heartbeat IPC: 0.4339 cumulative IPC: 0.6796 (Simulation time: 00 hr 19 min 26 sec)
Heartbeat CPU 0 instructions: 110000017 cycles: 108636678 heartbeat IPC: 0.4642 cumulative IPC: 0.6308 (Simulation time: 00 hr 23 min 28 sec)
Heartbeat CPU 0 instructions: 120000019 cycles: 121365657 heartbeat IPC: 0.7856 cumulative IPC: 0.6491 (Simulation time: 00 hr 25 min 18 sec)
Heartbeat CPU 0 instructions: 130000021 cycles: 134022900 heartbeat IPC: 0.7901 cumulative IPC: 0.6639 (Simulation time: 00 hr 26 min 40 sec)
Heartbeat CPU 0 instructions: 140000023 cycles: 146679668 heartbeat IPC: 0.7901 cumulative IPC: 0.6759 (Simulation time: 00 hr 27 min 58 sec)
Simulation finished CPU 0 instructions: 100000000 cycles: 145474620 cumulative IPC: 0.6874 (Simulation time: 00 hr 29 min 04 sec)
Simulation complete CPU 0 instructions: 100000000 cycles: 145474620 cumulative IPC: 0.6874 (Simulation time: 00 hr 29 min 04 sec)

ChampSim completed all CPUs

=== Simulation ===
CPU 0 runs /home/zevs_gromovergec/Programming/Interview/Sber/Programming_modulating/ChampSim/tracers/437.leslie3d-273B.champsimtrace.xz

Region of Interest Statistics

CPU 0 cumulative IPC: 0.6874 instructions: 100000000 cycles: 145474620
CPU 0 Branch Prediction Accuracy: 99.19% MPKI: 0.1548 Average ROB Occupancy at Mispredict: 335.8
Branch type MPKI
BRANCH_DIRECT_JUMP: 6e-05
BRANCH_INDIRECT: 0
BRANCH_CONDITIONAL: 0.1547
BRANCH_DIRECT_CALL: 0
BRANCH_INDIRECT_CALL: 0
BRANCH_RETURN: 1e-05

cpu0->cpu0_STLB TOTAL        ACCESS:      14230 HIT:        501 MISS:      13729 MSHR_MERGE:          0
cpu0->cpu0_STLB LOAD         ACCESS:      14230 HIT:        501 MISS:      13729 MSHR_MERGE:          0
cpu0->cpu0_STLB RFO          ACCESS:          0 HIT:          0 MISS:          0 MSHR_MERGE:          0
cpu0->cpu0_STLB PREFETCH     ACCESS:          0 HIT:          0 MISS:          0 MSHR_MERGE:          0
cpu0->cpu0_STLB WRITE        ACCESS:          0 HIT:          0 MISS:          0 MSHR_MERGE:          0
cpu0->cpu0_STLB TRANSLATION  ACCESS:          0 HIT:          0 MISS:          0 MSHR_MERGE:          0
cpu0->cpu0_STLB PREFETCH REQUESTED:          0 ISSUED:          0 USEFUL:          0 USELESS:          0
cpu0->cpu0_STLB AVERAGE MISS LATENCY: 473.2 cycles
cpu0->cpu0_L2C TOTAL        ACCESS:    1162947 HIT:     289361 MISS:     873586 MSHR_MERGE:          0
cpu0->cpu0_L2C LOAD         ACCESS:     606630 HIT:      13370 MISS:     593260 MSHR_MERGE:          0
cpu0->cpu0_L2C RFO          ACCESS:     268539 HIT:       3986 MISS:     264553 MSHR_MERGE:          0
cpu0->cpu0_L2C PREFETCH     ACCESS:          0 HIT:          0 MISS:          0 MSHR_MERGE:          0
cpu0->cpu0_L2C WRITE        ACCESS:     271822 HIT:     271821 MISS:          1 MSHR_MERGE:          0
cpu0->cpu0_L2C TRANSLATION  ACCESS:      15956 HIT:        184 MISS:      15772 MSHR_MERGE:          0
cpu0->cpu0_L2C PREFETCH REQUESTED:          0 ISSUED:          0 USEFUL:          0 USELESS:          0
cpu0->cpu0_L2C AVERAGE MISS LATENCY: 225.1 cycles
cpu0->cpu0_L1I TOTAL        ACCESS:   21521217 HIT:   21521058 MISS:        159 MSHR_MERGE:         71
cpu0->cpu0_L1I LOAD         ACCESS:   21521217 HIT:   21521058 MISS:        159 MSHR_MERGE:         71
cpu0->cpu0_L1I RFO          ACCESS:          0 HIT:          0 MISS:          0 MSHR_MERGE:          0
cpu0->cpu0_L1I PREFETCH     ACCESS:          0 HIT:          0 MISS:          0 MSHR_MERGE:          0
cpu0->cpu0_L1I WRITE        ACCESS:          0 HIT:          0 MISS:          0 MSHR_MERGE:          0
cpu0->cpu0_L1I TRANSLATION  ACCESS:          0 HIT:          0 MISS:          0 MSHR_MERGE:          0
cpu0->cpu0_L1I PREFETCH REQUESTED:          0 ISSUED:          0 USEFUL:          0 USELESS:          0
cpu0->cpu0_L1I AVERAGE MISS LATENCY: 224.6 cycles
cpu0->cpu0_L1D TOTAL        ACCESS:   35841925 HIT:   33384061 MISS:    2457864 MSHR_MERGE:    1566827
cpu0->cpu0_L1D LOAD         ACCESS:   33598105 HIT:   32646366 MISS:     951739 MSHR_MERGE:     345197
cpu0->cpu0_L1D RFO          ACCESS:          0 HIT:          0 MISS:          0 MSHR_MERGE:          0
cpu0->cpu0_L1D PREFETCH     ACCESS:          0 HIT:          0 MISS:          0 MSHR_MERGE:          0
cpu0->cpu0_L1D WRITE        ACCESS:    2216348 HIT:     726184 MISS:    1490164 MSHR_MERGE:    1221625
cpu0->cpu0_L1D TRANSLATION  ACCESS:      27472 HIT:      11511 MISS:      15961 MSHR_MERGE:          5
cpu0->cpu0_L1D PREFETCH REQUESTED:          0 ISSUED:          0 USEFUL:          0 USELESS:          0
cpu0->cpu0_L1D AVERAGE MISS LATENCY: 229.7 cycles
cpu0->cpu0_ITLB TOTAL        ACCESS:   17943285 HIT:   17943278 MISS:          7 MSHR_MERGE:          5
cpu0->cpu0_ITLB LOAD         ACCESS:   17943285 HIT:   17943278 MISS:          7 MSHR_MERGE:          5
cpu0->cpu0_ITLB RFO          ACCESS:          0 HIT:          0 MISS:          0 MSHR_MERGE:          0
cpu0->cpu0_ITLB PREFETCH     ACCESS:          0 HIT:          0 MISS:          0 MSHR_MERGE:          0
cpu0->cpu0_ITLB WRITE        ACCESS:          0 HIT:          0 MISS:          0 MSHR_MERGE:          0
cpu0->cpu0_ITLB TRANSLATION  ACCESS:          0 HIT:          0 MISS:          0 MSHR_MERGE:          0
cpu0->cpu0_ITLB PREFETCH REQUESTED:          0 ISSUED:          0 USEFUL:          0 USELESS:          0
cpu0->cpu0_ITLB AVERAGE MISS LATENCY: 857.5 cycles
cpu0->cpu0_DTLB TOTAL        ACCESS:   34517834 HIT:   34453951 MISS:      63883 MSHR_MERGE:      49655
cpu0->cpu0_DTLB LOAD         ACCESS:   34517834 HIT:   34453951 MISS:      63883 MSHR_MERGE:      49655
cpu0->cpu0_DTLB RFO          ACCESS:          0 HIT:          0 MISS:          0 MSHR_MERGE:          0
cpu0->cpu0_DTLB PREFETCH     ACCESS:          0 HIT:          0 MISS:          0 MSHR_MERGE:          0
cpu0->cpu0_DTLB WRITE        ACCESS:          0 HIT:          0 MISS:          0 MSHR_MERGE:          0
cpu0->cpu0_DTLB TRANSLATION  ACCESS:          0 HIT:          0 MISS:          0 MSHR_MERGE:          0
cpu0->cpu0_DTLB PREFETCH REQUESTED:          0 ISSUED:          0 USEFUL:          0 USELESS:          0
cpu0->cpu0_DTLB AVERAGE MISS LATENCY: 462.4 cycles
cpu0->LLC TOTAL        ACCESS:    1140655 HIT:     267086 MISS:     873569 MSHR_MERGE:          0
cpu0->LLC LOAD         ACCESS:     593260 HIT:         18 MISS:     593242 MSHR_MERGE:          0
cpu0->LLC RFO          ACCESS:     264553 HIT:          2 MISS:     264551 MSHR_MERGE:          0
cpu0->LLC PREFETCH     ACCESS:          0 HIT:          0 MISS:          0 MSHR_MERGE:          0
cpu0->LLC WRITE        ACCESS:     267070 HIT:     267066 MISS:          4 MSHR_MERGE:          0
cpu0->LLC TRANSLATION  ACCESS:      15772 HIT:          0 MISS:      15772 MSHR_MERGE:          0
cpu0->LLC PREFETCH REQUESTED:          0 ISSUED:          0 USEFUL:          0 USELESS:          0
cpu0->LLC AVERAGE MISS LATENCY: 209.1 cycles

DRAM Statistics

Channel 0 RQ ROW_BUFFER_HIT:         90
  ROW_BUFFER_MISS:     873475
  AVG DBUS CONGESTED CYCLE: 11.54
Channel 0 WQ ROW_BUFFER_HIT:     103581
  ROW_BUFFER_MISS:     172102
  FULL:          0
Channel 0 REFRESHES ISSUED:      12123
