[VMEM] WARNING: physical memory size is smaller than virtual memory size.

*** ChampSim Multicore Out-of-Order Simulator ***
Warmup Instructions: 50000000
Simulation Instructions: 100000000
Number of CPUs: 1
Page size: 4096

Initialize SIGNATURE TABLE
ST_SET: 1
ST_WAY: 256
ST_TAG_BIT: 16

Initialize PATTERN TABLE
PT_SET: 512
PT_WAY: 4
SIG_DELTA_BIT: 7
C_SIG_BIT: 4
C_DELTA_BIT: 4

Initialize PREFETCH FILTER
FILTER_SET: 1024
Off-chip DRAM Size: 16 GiB Channels: 1 Width: 64-bit Data Rate: 3205 MT/s
Heartbeat CPU 0 instructions: 10000000 cycles: 2560077 heartbeat IPC: 3.906 cumulative IPC: 3.906 (Simulation time: 00 hr 00 min 46 sec)
Heartbeat CPU 0 instructions: 20000003 cycles: 5072346 heartbeat IPC: 3.98 cumulative IPC: 3.943 (Simulation time: 00 hr 01 min 31 sec)
Heartbeat CPU 0 instructions: 30000005 cycles: 7589579 heartbeat IPC: 3.973 cumulative IPC: 3.953 (Simulation time: 00 hr 02 min 17 sec)
Heartbeat CPU 0 instructions: 40000006 cycles: 10101400 heartbeat IPC: 3.981 cumulative IPC: 3.96 (Simulation time: 00 hr 02 min 55 sec)
Warmup finished CPU 0 instructions: 50000000 cycles: 12615750 cumulative IPC: 3.963 (Simulation time: 00 hr 03 min 23 sec)
Warmup complete CPU 0 instructions: 50000000 cycles: 12615750 cumulative IPC: 3.963 (Simulation time: 00 hr 03 min 23 sec)
Heartbeat CPU 0 instructions: 50000008 cycles: 12615752 heartbeat IPC: 3.977 cumulative IPC: 4 (Simulation time: 00 hr 03 min 23 sec)
Heartbeat CPU 0 instructions: 60000008 cycles: 16738043 heartbeat IPC: 2.426 cumulative IPC: 2.426 (Simulation time: 00 hr 03 min 56 sec)
Heartbeat CPU 0 instructions: 70000010 cycles: 20892428 heartbeat IPC: 2.407 cumulative IPC: 2.416 (Simulation time: 00 hr 04 min 29 sec)
Heartbeat CPU 0 instructions: 80000011 cycles: 25046191 heartbeat IPC: 2.407 cumulative IPC: 2.413 (Simulation time: 00 hr 05 min 02 sec)
Heartbeat CPU 0 instructions: 90000012 cycles: 29151612 heartbeat IPC: 2.436 cumulative IPC: 2.419 (Simulation time: 00 hr 05 min 34 sec)
Heartbeat CPU 0 instructions: 100000012 cycles: 33207783 heartbeat IPC: 2.465 cumulative IPC: 2.428 (Simulation time: 00 hr 06 min 20 sec)
Heartbeat CPU 0 instructions: 110000015 cycles: 37187058 heartbeat IPC: 2.513 cumulative IPC: 2.442 (Simulation time: 00 hr 07 min 13 sec)
Heartbeat CPU 0 instructions: 120000016 cycles: 44290727 heartbeat IPC: 1.408 cumulative IPC: 2.21 (Simulation time: 00 hr 08 min 38 sec)
Heartbeat CPU 0 instructions: 130000017 cycles: 47540201 heartbeat IPC: 3.077 cumulative IPC: 2.291 (Simulation time: 00 hr 09 min 12 sec)
Heartbeat CPU 0 instructions: 140000021 cycles: 51729768 heartbeat IPC: 2.387 cumulative IPC: 2.301 (Simulation time: 00 hr 09 min 43 sec)
Simulation finished CPU 0 instructions: 100000000 cycles: 43729302 cumulative IPC: 2.287 (Simulation time: 00 hr 10 min 18 sec)
Simulation complete CPU 0 instructions: 100000000 cycles: 43729302 cumulative IPC: 2.287 (Simulation time: 00 hr 10 min 18 sec)

ChampSim completed all CPUs

=== Simulation ===
CPU 0 runs /home/zevs_gromovergec/Programming/Interview/Sber/Programming_modulating/ChampSim/tracers/625.x264_s-39B.champsimtrace.xz

Region of Interest Statistics

CPU 0 cumulative IPC: 2.287 instructions: 100000000 cycles: 43729302
CPU 0 Branch Prediction Accuracy: 91.33% MPKI: 3.491 Average ROB Occupancy at Mispredict: 77.45
Branch type MPKI
BRANCH_DIRECT_JUMP: 0.0026
BRANCH_INDIRECT: 0.00318
BRANCH_CONDITIONAL: 3.316
BRANCH_DIRECT_CALL: 0.0024
BRANCH_INDIRECT_CALL: 0.06673
BRANCH_RETURN: 0.1004

cpu0->cpu0_STLB TOTAL        ACCESS:      92244 HIT:      89765 MISS:       2479 MSHR_MERGE:          0
cpu0->cpu0_STLB LOAD         ACCESS:      92244 HIT:      89765 MISS:       2479 MSHR_MERGE:          0
cpu0->cpu0_STLB RFO          ACCESS:          0 HIT:          0 MISS:          0 MSHR_MERGE:          0
cpu0->cpu0_STLB PREFETCH     ACCESS:          0 HIT:          0 MISS:          0 MSHR_MERGE:          0
cpu0->cpu0_STLB WRITE        ACCESS:          0 HIT:          0 MISS:          0 MSHR_MERGE:          0
cpu0->cpu0_STLB TRANSLATION  ACCESS:          0 HIT:          0 MISS:          0 MSHR_MERGE:          0
cpu0->cpu0_STLB PREFETCH REQUESTED:          0 ISSUED:          0 USEFUL:          0 USELESS:          0
cpu0->cpu0_STLB AVERAGE MISS LATENCY: 759.1 cycles
cpu0->cpu0_L2C TOTAL        ACCESS:    2562392 HIT:    1475847 MISS:    1086545 MSHR_MERGE:      50626
cpu0->cpu0_L2C LOAD         ACCESS:     643115 HIT:     529573 MISS:     113542 MSHR_MERGE:       6788
cpu0->cpu0_L2C RFO          ACCESS:      85998 HIT:      14446 MISS:      71552 MSHR_MERGE:         11
cpu0->cpu0_L2C PREFETCH     ACCESS:    1714810 HIT:     870023 MISS:     844787 MSHR_MERGE:      43827
cpu0->cpu0_L2C WRITE        ACCESS:     114941 HIT:      61802 MISS:      53139 MSHR_MERGE:          0
cpu0->cpu0_L2C TRANSLATION  ACCESS:       3528 HIT:          3 MISS:       3525 MSHR_MERGE:          0
cpu0->cpu0_L2C PREFETCH REQUESTED:    2504514 ISSUED:    1714810 USEFUL:      38680 USELESS:        970
cpu0->cpu0_L2C AVERAGE MISS LATENCY: 122.9 cycles
cpu0->cpu0_L1I TOTAL        ACCESS:   11164454 HIT:   10425142 MISS:     739312 MSHR_MERGE:     293490
cpu0->cpu0_L1I LOAD         ACCESS:   11164454 HIT:   10425142 MISS:     739312 MSHR_MERGE:     293490
cpu0->cpu0_L1I RFO          ACCESS:          0 HIT:          0 MISS:          0 MSHR_MERGE:          0
cpu0->cpu0_L1I PREFETCH     ACCESS:          0 HIT:          0 MISS:          0 MSHR_MERGE:          0
cpu0->cpu0_L1I WRITE        ACCESS:          0 HIT:          0 MISS:          0 MSHR_MERGE:          0
cpu0->cpu0_L1I TRANSLATION  ACCESS:          0 HIT:          0 MISS:          0 MSHR_MERGE:          0
cpu0->cpu0_L1I PREFETCH REQUESTED:          0 ISSUED:          0 USEFUL:          0 USELESS:          0
cpu0->cpu0_L1I AVERAGE MISS LATENCY: 8.013 cycles
cpu0->cpu0_L1D TOTAL        ACCESS:   21700974 HIT:   20529230 MISS:    1171744 MSHR_MERGE:     884922
cpu0->cpu0_L1D LOAD         ACCESS:   15027372 HIT:   14588965 MISS:     438407 MSHR_MERGE:     241114
cpu0->cpu0_L1D RFO          ACCESS:          0 HIT:          0 MISS:          0 MSHR_MERGE:          0
cpu0->cpu0_L1D PREFETCH     ACCESS:          0 HIT:          0 MISS:          0 MSHR_MERGE:          0
cpu0->cpu0_L1D WRITE        ACCESS:    6668625 HIT:    5938907 MISS:     729718 MSHR_MERGE:     643717
cpu0->cpu0_L1D TRANSLATION  ACCESS:       4977 HIT:       1358 MISS:       3619 MSHR_MERGE:         91
cpu0->cpu0_L1D PREFETCH REQUESTED:          0 ISSUED:          0 USEFUL:          0 USELESS:          0
cpu0->cpu0_L1D AVERAGE MISS LATENCY: 110.4 cycles
cpu0->cpu0_ITLB TOTAL        ACCESS:    9824017 HIT:    9820579 MISS:       3438 MSHR_MERGE:       2417
cpu0->cpu0_ITLB LOAD         ACCESS:    9824017 HIT:    9820579 MISS:       3438 MSHR_MERGE:       2417
cpu0->cpu0_ITLB RFO          ACCESS:          0 HIT:          0 MISS:          0 MSHR_MERGE:          0
cpu0->cpu0_ITLB PREFETCH     ACCESS:          0 HIT:          0 MISS:          0 MSHR_MERGE:          0
cpu0->cpu0_ITLB WRITE        ACCESS:          0 HIT:          0 MISS:          0 MSHR_MERGE:          0
cpu0->cpu0_ITLB TRANSLATION  ACCESS:          0 HIT:          0 MISS:          0 MSHR_MERGE:          0
cpu0->cpu0_ITLB PREFETCH REQUESTED:          0 ISSUED:          0 USEFUL:          0 USELESS:          0
cpu0->cpu0_ITLB AVERAGE MISS LATENCY: 59.36 cycles
cpu0->cpu0_DTLB TOTAL        ACCESS:   20548351 HIT:   20356490 MISS:     191861 MSHR_MERGE:     100638
cpu0->cpu0_DTLB LOAD         ACCESS:   20548351 HIT:   20356490 MISS:     191861 MSHR_MERGE:     100638
cpu0->cpu0_DTLB RFO          ACCESS:          0 HIT:          0 MISS:          0 MSHR_MERGE:          0
cpu0->cpu0_DTLB PREFETCH     ACCESS:          0 HIT:          0 MISS:          0 MSHR_MERGE:          0
cpu0->cpu0_DTLB WRITE        ACCESS:          0 HIT:          0 MISS:          0 MSHR_MERGE:          0
cpu0->cpu0_DTLB TRANSLATION  ACCESS:          0 HIT:          0 MISS:          0 MSHR_MERGE:          0
cpu0->cpu0_DTLB PREFETCH REQUESTED:          0 ISSUED:          0 USEFUL:          0 USELESS:          0
cpu0->cpu0_DTLB AVERAGE MISS LATENCY: 25.05 cycles
cpu0->LLC TOTAL        ACCESS:    1074799 HIT:     658574 MISS:     416225 MSHR_MERGE:     223536
cpu0->LLC LOAD         ACCESS:     106754 HIT:      76345 MISS:      30409 MSHR_MERGE:      14044
cpu0->LLC RFO          ACCESS:      71540 HIT:       2160 MISS:      69380 MSHR_MERGE:        498
cpu0->LLC PREFETCH     ACCESS:     794681 HIT:     494182 MISS:     300499 MSHR_MERGE:     208994
cpu0->LLC WRITE        ACCESS:      98299 HIT:      85847 MISS:      12452 MSHR_MERGE:          0
cpu0->LLC TRANSLATION  ACCESS:       3525 HIT:         40 MISS:       3485 MSHR_MERGE:          0
cpu0->LLC PREFETCH REQUESTED:          0 ISSUED:          0 USEFUL:          0 USELESS:          0
cpu0->LLC AVERAGE MISS LATENCY: 222.8 cycles

DRAM Statistics

Channel 0 RQ ROW_BUFFER_HIT:       5706
  ROW_BUFFER_MISS:     174506
  AVG DBUS CONGESTED CYCLE: 8.62
Channel 0 WQ ROW_BUFFER_HIT:      12360
  ROW_BUFFER_MISS:      78930
  FULL:          0
Channel 0 REFRESHES ISSUED:       3644
