[VMEM] WARNING: physical memory size is smaller than virtual memory size.

*** ChampSim Multicore Out-of-Order Simulator ***
Warmup Instructions: 50000000
Simulation Instructions: 100000000
Number of CPUs: 1
Page size: 4096

Off-chip DRAM Size: 16 GiB Channels: 1 Width: 64-bit Data Rate: 3205 MT/s
Heartbeat CPU 0 instructions: 10000000 cycles: 2558349 heartbeat IPC: 3.909 cumulative IPC: 3.909 (Simulation time: 00 hr 00 min 52 sec)
Heartbeat CPU 0 instructions: 20000002 cycles: 5147705 heartbeat IPC: 3.862 cumulative IPC: 3.885 (Simulation time: 00 hr 01 min 26 sec)
Heartbeat CPU 0 instructions: 30000004 cycles: 7661656 heartbeat IPC: 3.978 cumulative IPC: 3.916 (Simulation time: 00 hr 02 min 01 sec)
Heartbeat CPU 0 instructions: 40000005 cycles: 10176989 heartbeat IPC: 3.976 cumulative IPC: 3.93 (Simulation time: 00 hr 02 min 42 sec)
Warmup finished CPU 0 instructions: 50000000 cycles: 12680755 cumulative IPC: 3.943 (Simulation time: 00 hr 03 min 35 sec)
Warmup complete CPU 0 instructions: 50000000 cycles: 12680755 cumulative IPC: 3.943 (Simulation time: 00 hr 03 min 35 sec)
Heartbeat CPU 0 instructions: 50000005 cycles: 12680756 heartbeat IPC: 3.994 cumulative IPC: 5 (Simulation time: 00 hr 03 min 35 sec)
Heartbeat CPU 0 instructions: 60000009 cycles: 17388757 heartbeat IPC: 2.124 cumulative IPC: 2.124 (Simulation time: 00 hr 04 min 51 sec)
Heartbeat CPU 0 instructions: 70000010 cycles: 22421617 heartbeat IPC: 1.987 cumulative IPC: 2.053 (Simulation time: 00 hr 06 min 10 sec)
Heartbeat CPU 0 instructions: 80000014 cycles: 27451829 heartbeat IPC: 1.988 cumulative IPC: 2.031 (Simulation time: 00 hr 07 min 29 sec)
Heartbeat CPU 0 instructions: 90000014 cycles: 32549053 heartbeat IPC: 1.962 cumulative IPC: 2.013 (Simulation time: 00 hr 08 min 48 sec)
Heartbeat CPU 0 instructions: 100000015 cycles: 37582372 heartbeat IPC: 1.987 cumulative IPC: 2.008 (Simulation time: 00 hr 10 min 07 sec)
Heartbeat CPU 0 instructions: 110000015 cycles: 42614382 heartbeat IPC: 1.987 cumulative IPC: 2.004 (Simulation time: 00 hr 11 min 26 sec)
Heartbeat CPU 0 instructions: 120000018 cycles: 47653442 heartbeat IPC: 1.984 cumulative IPC: 2.002 (Simulation time: 00 hr 12 min 47 sec)
Heartbeat CPU 0 instructions: 130000018 cycles: 52684451 heartbeat IPC: 1.988 cumulative IPC: 2 (Simulation time: 00 hr 14 min 07 sec)
Heartbeat CPU 0 instructions: 140000018 cycles: 57741372 heartbeat IPC: 1.977 cumulative IPC: 1.997 (Simulation time: 00 hr 15 min 29 sec)
Simulation finished CPU 0 instructions: 100000002 cycles: 50096159 cumulative IPC: 1.996 (Simulation time: 00 hr 16 min 51 sec)
Simulation complete CPU 0 instructions: 100000002 cycles: 50096159 cumulative IPC: 1.996 (Simulation time: 00 hr 16 min 51 sec)

ChampSim completed all CPUs

=== Simulation ===
CPU 0 runs /home/zevs_gromovergec/Programming/Interview/Sber/Programming_modulating/ChampSim/tracers/456.hmmer-327B.champsimtrace.xz

Region of Interest Statistics

CPU 0 cumulative IPC: 1.996 instructions: 100000002 cycles: 50096159
CPU 0 Branch Prediction Accuracy: 99.38% MPKI: 0.2744 Average ROB Occupancy at Mispredict: 106.4
Branch type MPKI
BRANCH_DIRECT_JUMP: 2e-05
BRANCH_INDIRECT: 0.00042
BRANCH_CONDITIONAL: 0.2738
BRANCH_DIRECT_CALL: 4e-05
BRANCH_INDIRECT_CALL: 0.0001
BRANCH_RETURN: 5e-05

cpu0->cpu0_STLB TOTAL        ACCESS:       6570 HIT:       6436 MISS:        134 MSHR_MERGE:          0
cpu0->cpu0_STLB LOAD         ACCESS:       6570 HIT:       6436 MISS:        134 MSHR_MERGE:          0
cpu0->cpu0_STLB RFO          ACCESS:          0 HIT:          0 MISS:          0 MSHR_MERGE:          0
cpu0->cpu0_STLB PREFETCH     ACCESS:          0 HIT:          0 MISS:          0 MSHR_MERGE:          0
cpu0->cpu0_STLB WRITE        ACCESS:          0 HIT:          0 MISS:          0 MSHR_MERGE:          0
cpu0->cpu0_STLB TRANSLATION  ACCESS:          0 HIT:          0 MISS:          0 MSHR_MERGE:          0
cpu0->cpu0_STLB PREFETCH REQUESTED:          0 ISSUED:          0 USEFUL:          0 USELESS:          0
cpu0->cpu0_STLB AVERAGE MISS LATENCY: 680.3 cycles
cpu0->cpu0_L2C TOTAL        ACCESS:     681272 HIT:     272886 MISS:     408386 MSHR_MERGE:          0
cpu0->cpu0_L2C LOAD         ACCESS:     147637 HIT:     137966 MISS:       9671 MSHR_MERGE:          0
cpu0->cpu0_L2C RFO          ACCESS:     266400 HIT:       1386 MISS:     265014 MSHR_MERGE:          0
cpu0->cpu0_L2C PREFETCH     ACCESS:          0 HIT:          0 MISS:          0 MSHR_MERGE:          0
cpu0->cpu0_L2C WRITE        ACCESS:     267065 HIT:     133528 MISS:     133537 MSHR_MERGE:          0
cpu0->cpu0_L2C TRANSLATION  ACCESS:        170 HIT:          6 MISS:        164 MSHR_MERGE:          0
cpu0->cpu0_L2C PREFETCH REQUESTED:          0 ISSUED:          0 USEFUL:          0 USELESS:          0
cpu0->cpu0_L2C AVERAGE MISS LATENCY: 48.98 cycles
cpu0->cpu0_L1I TOTAL        ACCESS:   19696250 HIT:   19696245 MISS:          5 MSHR_MERGE:          0
cpu0->cpu0_L1I LOAD         ACCESS:   19696250 HIT:   19696245 MISS:          5 MSHR_MERGE:          0
cpu0->cpu0_L1I RFO          ACCESS:          0 HIT:          0 MISS:          0 MSHR_MERGE:          0
cpu0->cpu0_L1I PREFETCH     ACCESS:          0 HIT:          0 MISS:          0 MSHR_MERGE:          0
cpu0->cpu0_L1I WRITE        ACCESS:          0 HIT:          0 MISS:          0 MSHR_MERGE:          0
cpu0->cpu0_L1I TRANSLATION  ACCESS:          0 HIT:          0 MISS:          0 MSHR_MERGE:          0
cpu0->cpu0_L1I PREFETCH REQUESTED:          0 ISSUED:          0 USEFUL:          0 USELESS:          0
cpu0->cpu0_L1I AVERAGE MISS LATENCY: 236.6 cycles
cpu0->cpu0_L1D TOTAL        ACCESS:   44457768 HIT:   42096995 MISS:    2360773 MSHR_MERGE:    1946571
cpu0->cpu0_L1D LOAD         ACCESS:   31487946 HIT:   31334677 MISS:     153269 MSHR_MERGE:       5637
cpu0->cpu0_L1D RFO          ACCESS:          0 HIT:          0 MISS:          0 MSHR_MERGE:          0
cpu0->cpu0_L1D PREFETCH     ACCESS:          0 HIT:          0 MISS:          0 MSHR_MERGE:          0
cpu0->cpu0_L1D WRITE        ACCESS:   12969554 HIT:   10762220 MISS:    2207334 MSHR_MERGE:    1940934
cpu0->cpu0_L1D TRANSLATION  ACCESS:        268 HIT:         98 MISS:        170 MSHR_MERGE:          0
cpu0->cpu0_L1D PREFETCH REQUESTED:          0 ISSUED:          0 USEFUL:          0 USELESS:          0
cpu0->cpu0_L1D AVERAGE MISS LATENCY: 55.68 cycles
cpu0->cpu0_ITLB TOTAL        ACCESS:   18173298 HIT:   18173296 MISS:          2 MSHR_MERGE:          1
cpu0->cpu0_ITLB LOAD         ACCESS:   18173298 HIT:   18173296 MISS:          2 MSHR_MERGE:          1
cpu0->cpu0_ITLB RFO          ACCESS:          0 HIT:          0 MISS:          0 MSHR_MERGE:          0
cpu0->cpu0_ITLB PREFETCH     ACCESS:          0 HIT:          0 MISS:          0 MSHR_MERGE:          0
cpu0->cpu0_ITLB WRITE        ACCESS:          0 HIT:          0 MISS:          0 MSHR_MERGE:          0
cpu0->cpu0_ITLB TRANSLATION  ACCESS:          0 HIT:          0 MISS:          0 MSHR_MERGE:          0
cpu0->cpu0_ITLB PREFETCH REQUESTED:          0 ISSUED:          0 USEFUL:          0 USELESS:          0
cpu0->cpu0_ITLB AVERAGE MISS LATENCY: 750 cycles
cpu0->cpu0_DTLB TOTAL        ACCESS:   42334463 HIT:   42322973 MISS:      11490 MSHR_MERGE:       4921
cpu0->cpu0_DTLB LOAD         ACCESS:   42334463 HIT:   42322973 MISS:      11490 MSHR_MERGE:       4921
cpu0->cpu0_DTLB RFO          ACCESS:          0 HIT:          0 MISS:          0 MSHR_MERGE:          0
cpu0->cpu0_DTLB PREFETCH     ACCESS:          0 HIT:          0 MISS:          0 MSHR_MERGE:          0
cpu0->cpu0_DTLB WRITE        ACCESS:          0 HIT:          0 MISS:          0 MSHR_MERGE:          0
cpu0->cpu0_DTLB TRANSLATION  ACCESS:          0 HIT:          0 MISS:          0 MSHR_MERGE:          0
cpu0->cpu0_DTLB PREFETCH REQUESTED:          0 ISSUED:          0 USEFUL:          0 USELESS:          0
cpu0->cpu0_DTLB AVERAGE MISS LATENCY: 18.79 cycles
cpu0->LLC TOTAL        ACCESS:     540231 HIT:     458756 MISS:      81475 MSHR_MERGE:          0
cpu0->LLC LOAD         ACCESS:       9671 HIT:       8863 MISS:        808 MSHR_MERGE:          0
cpu0->LLC RFO          ACCESS:     265014 HIT:     184711 MISS:      80303 MSHR_MERGE:          0
cpu0->LLC PREFETCH     ACCESS:          0 HIT:          0 MISS:          0 MSHR_MERGE:          0
cpu0->LLC WRITE        ACCESS:     265382 HIT:     265177 MISS:        205 MSHR_MERGE:          0
cpu0->LLC TRANSLATION  ACCESS:        164 HIT:          5 MISS:        159 MSHR_MERGE:          0
cpu0->LLC PREFETCH REQUESTED:          0 ISSUED:          0 USEFUL:          0 USELESS:          0
cpu0->LLC AVERAGE MISS LATENCY: 187.3 cycles

DRAM Statistics

Channel 0 RQ ROW_BUFFER_HIT:         22
  ROW_BUFFER_MISS:      81244
  AVG DBUS CONGESTED CYCLE: 6.837
Channel 0 WQ ROW_BUFFER_HIT:       1265
  ROW_BUFFER_MISS:      78236
  FULL:          0
Channel 0 REFRESHES ISSUED:       4175
