[VMEM] WARNING: physical memory size is smaller than virtual memory size.

*** ChampSim Multicore Out-of-Order Simulator ***
Warmup Instructions: 50000000
Simulation Instructions: 100000000
Number of CPUs: 1
Page size: 4096

Off-chip DRAM Size: 16 GiB Channels: 1 Width: 64-bit Data Rate: 3205 MT/s
Heartbeat CPU 0 instructions: 10000000 cycles: 2560195 heartbeat IPC: 3.906 cumulative IPC: 3.906 (Simulation time: 00 hr 00 min 42 sec)
Heartbeat CPU 0 instructions: 20000001 cycles: 5072640 heartbeat IPC: 3.98 cumulative IPC: 3.943 (Simulation time: 00 hr 01 min 26 sec)
Heartbeat CPU 0 instructions: 30000001 cycles: 7589820 heartbeat IPC: 3.973 cumulative IPC: 3.953 (Simulation time: 00 hr 02 min 10 sec)
Heartbeat CPU 0 instructions: 40000002 cycles: 10101869 heartbeat IPC: 3.981 cumulative IPC: 3.96 (Simulation time: 00 hr 02 min 54 sec)
Warmup finished CPU 0 instructions: 50000000 cycles: 12616307 cumulative IPC: 3.963 (Simulation time: 00 hr 03 min 39 sec)
Warmup complete CPU 0 instructions: 50000000 cycles: 12616307 cumulative IPC: 3.963 (Simulation time: 00 hr 03 min 39 sec)
Heartbeat CPU 0 instructions: 50000004 cycles: 12616308 heartbeat IPC: 3.977 cumulative IPC: 4 (Simulation time: 00 hr 03 min 39 sec)
Heartbeat CPU 0 instructions: 60000008 cycles: 16905245 heartbeat IPC: 2.332 cumulative IPC: 2.332 (Simulation time: 00 hr 04 min 30 sec)
Heartbeat CPU 0 instructions: 70000010 cycles: 21238865 heartbeat IPC: 2.308 cumulative IPC: 2.319 (Simulation time: 00 hr 05 min 16 sec)
Heartbeat CPU 0 instructions: 80000011 cycles: 25529245 heartbeat IPC: 2.331 cumulative IPC: 2.323 (Simulation time: 00 hr 06 min 12 sec)
Heartbeat CPU 0 instructions: 90000012 cycles: 29835928 heartbeat IPC: 2.322 cumulative IPC: 2.323 (Simulation time: 00 hr 07 min 05 sec)
Heartbeat CPU 0 instructions: 100000012 cycles: 34052355 heartbeat IPC: 2.372 cumulative IPC: 2.333 (Simulation time: 00 hr 07 min 58 sec)
Heartbeat CPU 0 instructions: 110000015 cycles: 38167430 heartbeat IPC: 2.43 cumulative IPC: 2.348 (Simulation time: 00 hr 08 min 52 sec)
Heartbeat CPU 0 instructions: 120000016 cycles: 50779316 heartbeat IPC: 0.7929 cumulative IPC: 1.834 (Simulation time: 00 hr 10 min 58 sec)
Heartbeat CPU 0 instructions: 130000017 cycles: 54833940 heartbeat IPC: 2.466 cumulative IPC: 1.895 (Simulation time: 00 hr 11 min 56 sec)
Heartbeat CPU 0 instructions: 140000021 cycles: 62062134 heartbeat IPC: 1.383 cumulative IPC: 1.82 (Simulation time: 00 hr 13 min 14 sec)
Simulation finished CPU 0 instructions: 100000000 cycles: 54333560 cumulative IPC: 1.84 (Simulation time: 00 hr 14 min 14 sec)
Simulation complete CPU 0 instructions: 100000000 cycles: 54333560 cumulative IPC: 1.84 (Simulation time: 00 hr 14 min 14 sec)

ChampSim completed all CPUs

=== Simulation ===
CPU 0 runs /home/zevs_gromovergec/Programming/Interview/Sber/Programming_modulating/ChampSim/tracers/625.x264_s-39B.champsimtrace.xz

Region of Interest Statistics

CPU 0 cumulative IPC: 1.84 instructions: 100000000 cycles: 54333560
CPU 0 Branch Prediction Accuracy: 91.33% MPKI: 3.491 Average ROB Occupancy at Mispredict: 77.98
Branch type MPKI
BRANCH_DIRECT_JUMP: 0.0026
BRANCH_INDIRECT: 0.00318
BRANCH_CONDITIONAL: 3.316
BRANCH_DIRECT_CALL: 0.0024
BRANCH_INDIRECT_CALL: 0.06673
BRANCH_RETURN: 0.1004

cpu0->cpu0_STLB TOTAL        ACCESS:      92249 HIT:      89770 MISS:       2479 MSHR_MERGE:          0
cpu0->cpu0_STLB LOAD         ACCESS:      92249 HIT:      89770 MISS:       2479 MSHR_MERGE:          0
cpu0->cpu0_STLB RFO          ACCESS:          0 HIT:          0 MISS:          0 MSHR_MERGE:          0
cpu0->cpu0_STLB PREFETCH     ACCESS:          0 HIT:          0 MISS:          0 MSHR_MERGE:          0
cpu0->cpu0_STLB WRITE        ACCESS:          0 HIT:          0 MISS:          0 MSHR_MERGE:          0
cpu0->cpu0_STLB TRANSLATION  ACCESS:          0 HIT:          0 MISS:          0 MSHR_MERGE:          0
cpu0->cpu0_STLB PREFETCH REQUESTED:          0 ISSUED:          0 USEFUL:          0 USELESS:          0
cpu0->cpu0_STLB AVERAGE MISS LATENCY: 741.6 cycles
cpu0->cpu0_L2C TOTAL        ACCESS:     847536 HIT:     596506 MISS:     251030 MSHR_MERGE:          0
cpu0->cpu0_L2C LOAD         ACCESS:     643099 HIT:     469105 MISS:     173994 MSHR_MERGE:          0
cpu0->cpu0_L2C RFO          ACCESS:      85982 HIT:      13551 MISS:      72431 MSHR_MERGE:          0
cpu0->cpu0_L2C PREFETCH     ACCESS:          0 HIT:          0 MISS:          0 MSHR_MERGE:          0
cpu0->cpu0_L2C WRITE        ACCESS:     114929 HIT:     113828 MISS:       1101 MSHR_MERGE:          0
cpu0->cpu0_L2C TRANSLATION  ACCESS:       3526 HIT:         22 MISS:       3504 MSHR_MERGE:          0
cpu0->cpu0_L2C PREFETCH REQUESTED:          0 ISSUED:          0 USEFUL:          0 USELESS:          0
cpu0->cpu0_L2C AVERAGE MISS LATENCY: 188.3 cycles
cpu0->cpu0_L1I TOTAL        ACCESS:   11186785 HIT:   10447008 MISS:     739777 MSHR_MERGE:     293974
cpu0->cpu0_L1I LOAD         ACCESS:   11186785 HIT:   10447008 MISS:     739777 MSHR_MERGE:     293974
cpu0->cpu0_L1I RFO          ACCESS:          0 HIT:          0 MISS:          0 MSHR_MERGE:          0
cpu0->cpu0_L1I PREFETCH     ACCESS:          0 HIT:          0 MISS:          0 MSHR_MERGE:          0
cpu0->cpu0_L1I WRITE        ACCESS:          0 HIT:          0 MISS:          0 MSHR_MERGE:          0
cpu0->cpu0_L1I TRANSLATION  ACCESS:          0 HIT:          0 MISS:          0 MSHR_MERGE:          0
cpu0->cpu0_L1I PREFETCH REQUESTED:          0 ISSUED:          0 USEFUL:          0 USELESS:          0
cpu0->cpu0_L1I AVERAGE MISS LATENCY: 8.447 cycles
cpu0->cpu0_L1D TOTAL        ACCESS:   21704719 HIT:   20596626 MISS:    1108093 MSHR_MERGE:     821286
cpu0->cpu0_L1D LOAD         ACCESS:   15031101 HIT:   14589154 MISS:     441947 MSHR_MERGE:     244651
cpu0->cpu0_L1D RFO          ACCESS:          0 HIT:          0 MISS:          0 MSHR_MERGE:          0
cpu0->cpu0_L1D PREFETCH     ACCESS:          0 HIT:          0 MISS:          0 MSHR_MERGE:          0
cpu0->cpu0_L1D WRITE        ACCESS:    6668641 HIT:    6006111 MISS:     662530 MSHR_MERGE:     576545
cpu0->cpu0_L1D TRANSLATION  ACCESS:       4977 HIT:       1361 MISS:       3616 MSHR_MERGE:         90
cpu0->cpu0_L1D PREFETCH REQUESTED:          0 ISSUED:          0 USEFUL:          0 USELESS:          0
cpu0->cpu0_L1D AVERAGE MISS LATENCY: 171.6 cycles
cpu0->cpu0_ITLB TOTAL        ACCESS:    9850224 HIT:    9846803 MISS:       3421 MSHR_MERGE:       2400
cpu0->cpu0_ITLB LOAD         ACCESS:    9850224 HIT:    9846803 MISS:       3421 MSHR_MERGE:       2400
cpu0->cpu0_ITLB RFO          ACCESS:          0 HIT:          0 MISS:          0 MSHR_MERGE:          0
cpu0->cpu0_ITLB PREFETCH     ACCESS:          0 HIT:          0 MISS:          0 MSHR_MERGE:          0
cpu0->cpu0_ITLB WRITE        ACCESS:          0 HIT:          0 MISS:          0 MSHR_MERGE:          0
cpu0->cpu0_ITLB TRANSLATION  ACCESS:          0 HIT:          0 MISS:          0 MSHR_MERGE:          0
cpu0->cpu0_ITLB PREFETCH REQUESTED:          0 ISSUED:          0 USEFUL:          0 USELESS:          0
cpu0->cpu0_ITLB AVERAGE MISS LATENCY: 56.84 cycles
cpu0->cpu0_DTLB TOTAL        ACCESS:   20557152 HIT:   20365919 MISS:     191233 MSHR_MERGE:     100005
cpu0->cpu0_DTLB LOAD         ACCESS:   20557152 HIT:   20365919 MISS:     191233 MSHR_MERGE:     100005
cpu0->cpu0_DTLB RFO          ACCESS:          0 HIT:          0 MISS:          0 MSHR_MERGE:          0
cpu0->cpu0_DTLB PREFETCH     ACCESS:          0 HIT:          0 MISS:          0 MSHR_MERGE:          0
cpu0->cpu0_DTLB WRITE        ACCESS:          0 HIT:          0 MISS:          0 MSHR_MERGE:          0
cpu0->cpu0_DTLB TRANSLATION  ACCESS:          0 HIT:          0 MISS:          0 MSHR_MERGE:          0
cpu0->cpu0_DTLB PREFETCH REQUESTED:          0 ISSUED:          0 USEFUL:          0 USELESS:          0
cpu0->cpu0_DTLB AVERAGE MISS LATENCY: 24.6 cycles
cpu0->LLC TOTAL        ACCESS:     346410 HIT:     159020 MISS:     187390 MSHR_MERGE:          0
cpu0->LLC LOAD         ACCESS:     173994 HIT:      60881 MISS:     113113 MSHR_MERGE:          0
cpu0->LLC RFO          ACCESS:      72431 HIT:       1702 MISS:      70729 MSHR_MERGE:          0
cpu0->LLC PREFETCH     ACCESS:          0 HIT:          0 MISS:          0 MSHR_MERGE:          0
cpu0->LLC WRITE        ACCESS:      96481 HIT:      96415 MISS:         66 MSHR_MERGE:          0
cpu0->LLC TRANSLATION  ACCESS:       3504 HIT:         22 MISS:       3482 MSHR_MERGE:          0
cpu0->LLC PREFETCH REQUESTED:          0 ISSUED:          0 USEFUL:          0 USELESS:          0
cpu0->LLC AVERAGE MISS LATENCY: 231.2 cycles

DRAM Statistics

Channel 0 RQ ROW_BUFFER_HIT:       3694
  ROW_BUFFER_MISS:     183588
  AVG DBUS CONGESTED CYCLE: 11.05
Channel 0 WQ ROW_BUFFER_HIT:      24081
  ROW_BUFFER_MISS:      67431
  FULL:          0
Channel 0 REFRESHES ISSUED:       4528
