[VMEM] WARNING: physical memory size is smaller than virtual memory size.

*** ChampSim Multicore Out-of-Order Simulator ***
Warmup Instructions: 50000000
Simulation Instructions: 100000000
Number of CPUs: 1
Page size: 4096

Off-chip DRAM Size: 16 GiB Channels: 1 Width: 64-bit Data Rate: 3205 MT/s
Heartbeat CPU 0 instructions: 10000002 cycles: 2558380 heartbeat IPC: 3.909 cumulative IPC: 3.909 (Simulation time: 00 hr 00 min 55 sec)
Heartbeat CPU 0 instructions: 20000002 cycles: 5147742 heartbeat IPC: 3.862 cumulative IPC: 3.885 (Simulation time: 00 hr 01 min 51 sec)
Heartbeat CPU 0 instructions: 30000004 cycles: 7661432 heartbeat IPC: 3.978 cumulative IPC: 3.916 (Simulation time: 00 hr 02 min 46 sec)
Heartbeat CPU 0 instructions: 40000006 cycles: 10176673 heartbeat IPC: 3.976 cumulative IPC: 3.931 (Simulation time: 00 hr 03 min 41 sec)
Warmup finished CPU 0 instructions: 50000000 cycles: 12680454 cumulative IPC: 3.943 (Simulation time: 00 hr 04 min 36 sec)
Warmup complete CPU 0 instructions: 50000000 cycles: 12680454 cumulative IPC: 3.943 (Simulation time: 00 hr 04 min 36 sec)
Heartbeat CPU 0 instructions: 50000010 cycles: 12680456 heartbeat IPC: 3.994 cumulative IPC: 5 (Simulation time: 00 hr 04 min 36 sec)
Heartbeat CPU 0 instructions: 60000014 cycles: 17402454 heartbeat IPC: 2.118 cumulative IPC: 2.118 (Simulation time: 00 hr 05 min 54 sec)
Heartbeat CPU 0 instructions: 70000018 cycles: 22452972 heartbeat IPC: 1.98 cumulative IPC: 2.047 (Simulation time: 00 hr 06 min 57 sec)
Heartbeat CPU 0 instructions: 80000018 cycles: 27497536 heartbeat IPC: 1.982 cumulative IPC: 2.025 (Simulation time: 00 hr 08 min 18 sec)
Heartbeat CPU 0 instructions: 90000019 cycles: 32628783 heartbeat IPC: 1.949 cumulative IPC: 2.005 (Simulation time: 00 hr 09 min 40 sec)
Heartbeat CPU 0 instructions: 100000020 cycles: 37670817 heartbeat IPC: 1.983 cumulative IPC: 2.001 (Simulation time: 00 hr 11 min 01 sec)
Heartbeat CPU 0 instructions: 110000020 cycles: 42725705 heartbeat IPC: 1.978 cumulative IPC: 1.997 (Simulation time: 00 hr 12 min 21 sec)
Heartbeat CPU 0 instructions: 120000023 cycles: 47790923 heartbeat IPC: 1.974 cumulative IPC: 1.994 (Simulation time: 00 hr 13 min 38 sec)
Heartbeat CPU 0 instructions: 130000025 cycles: 52834924 heartbeat IPC: 1.983 cumulative IPC: 1.992 (Simulation time: 00 hr 14 min 42 sec)
Heartbeat CPU 0 instructions: 140000026 cycles: 57917083 heartbeat IPC: 1.968 cumulative IPC: 1.99 (Simulation time: 00 hr 15 min 58 sec)
Simulation finished CPU 0 instructions: 100000002 cycles: 50287568 cumulative IPC: 1.989 (Simulation time: 00 hr 17 min 16 sec)
Simulation complete CPU 0 instructions: 100000002 cycles: 50287568 cumulative IPC: 1.989 (Simulation time: 00 hr 17 min 16 sec)

ChampSim completed all CPUs

=== Simulation ===
CPU 0 runs /home/zevs_gromovergec/Programming/Interview/Sber/Programming_modulating/ChampSim/tracers/456.hmmer-327B.champsimtrace.xz

Region of Interest Statistics

CPU 0 cumulative IPC: 1.989 instructions: 100000002 cycles: 50287568
CPU 0 Branch Prediction Accuracy: 99.38% MPKI: 0.2744 Average ROB Occupancy at Mispredict: 106.3
Branch type MPKI
BRANCH_DIRECT_JUMP: 2e-05
BRANCH_INDIRECT: 0.00042
BRANCH_CONDITIONAL: 0.2738
BRANCH_DIRECT_CALL: 4e-05
BRANCH_INDIRECT_CALL: 0.0001
BRANCH_RETURN: 5e-05

cpu0->cpu0_STLB TOTAL        ACCESS:       6569 HIT:       6435 MISS:        134 MSHR_MERGE:          0
cpu0->cpu0_STLB LOAD         ACCESS:       6569 HIT:       6435 MISS:        134 MSHR_MERGE:          0
cpu0->cpu0_STLB RFO          ACCESS:          0 HIT:          0 MISS:          0 MSHR_MERGE:          0
cpu0->cpu0_STLB PREFETCH     ACCESS:          0 HIT:          0 MISS:          0 MSHR_MERGE:          0
cpu0->cpu0_STLB WRITE        ACCESS:          0 HIT:          0 MISS:          0 MSHR_MERGE:          0
cpu0->cpu0_STLB TRANSLATION  ACCESS:          0 HIT:          0 MISS:          0 MSHR_MERGE:          0
cpu0->cpu0_STLB PREFETCH REQUESTED:          0 ISSUED:          0 USEFUL:          0 USELESS:          0
cpu0->cpu0_STLB AVERAGE MISS LATENCY: 681.6 cycles
cpu0->cpu0_L2C TOTAL        ACCESS:     681267 HIT:     408101 MISS:     273166 MSHR_MERGE:          0
cpu0->cpu0_L2C LOAD         ACCESS:     147633 HIT:     136494 MISS:      11139 MSHR_MERGE:          0
cpu0->cpu0_L2C RFO          ACCESS:     266399 HIT:       4572 MISS:     261827 MSHR_MERGE:          0
cpu0->cpu0_L2C PREFETCH     ACCESS:          0 HIT:          0 MISS:          0 MSHR_MERGE:          0
cpu0->cpu0_L2C WRITE        ACCESS:     267065 HIT:     267027 MISS:         38 MSHR_MERGE:          0
cpu0->cpu0_L2C TRANSLATION  ACCESS:        170 HIT:          8 MISS:        162 MSHR_MERGE:          0
cpu0->cpu0_L2C PREFETCH REQUESTED:          0 ISSUED:          0 USEFUL:          0 USELESS:          0
cpu0->cpu0_L2C AVERAGE MISS LATENCY: 74.01 cycles
cpu0->cpu0_L1I TOTAL        ACCESS:   19721215 HIT:   19721210 MISS:          5 MSHR_MERGE:          0
cpu0->cpu0_L1I LOAD         ACCESS:   19721215 HIT:   19721210 MISS:          5 MSHR_MERGE:          0
cpu0->cpu0_L1I RFO          ACCESS:          0 HIT:          0 MISS:          0 MSHR_MERGE:          0
cpu0->cpu0_L1I PREFETCH     ACCESS:          0 HIT:          0 MISS:          0 MSHR_MERGE:          0
cpu0->cpu0_L1I WRITE        ACCESS:          0 HIT:          0 MISS:          0 MSHR_MERGE:          0
cpu0->cpu0_L1I TRANSLATION  ACCESS:          0 HIT:          0 MISS:          0 MSHR_MERGE:          0
cpu0->cpu0_L1I PREFETCH REQUESTED:          0 ISSUED:          0 USEFUL:          0 USELESS:          0
cpu0->cpu0_L1I AVERAGE MISS LATENCY: 216.6 cycles
cpu0->cpu0_L1D TOTAL        ACCESS:   44456075 HIT:   42045570 MISS:    2410505 MSHR_MERGE:    1996307
cpu0->cpu0_L1D LOAD         ACCESS:   31489375 HIT:   31335941 MISS:     153434 MSHR_MERGE:       5806
cpu0->cpu0_L1D RFO          ACCESS:          0 HIT:          0 MISS:          0 MSHR_MERGE:          0
cpu0->cpu0_L1D PREFETCH     ACCESS:          0 HIT:          0 MISS:          0 MSHR_MERGE:          0
cpu0->cpu0_L1D WRITE        ACCESS:   12966432 HIT:   10709531 MISS:    2256901 MSHR_MERGE:    1990501
cpu0->cpu0_L1D TRANSLATION  ACCESS:        268 HIT:         98 MISS:        170 MSHR_MERGE:          0
cpu0->cpu0_L1D PREFETCH REQUESTED:          0 ISSUED:          0 USEFUL:          0 USELESS:          0
cpu0->cpu0_L1D AVERAGE MISS LATENCY: 57.49 cycles
cpu0->cpu0_ITLB TOTAL        ACCESS:   18188048 HIT:   18188046 MISS:          2 MSHR_MERGE:          1
cpu0->cpu0_ITLB LOAD         ACCESS:   18188048 HIT:   18188046 MISS:          2 MSHR_MERGE:          1
cpu0->cpu0_ITLB RFO          ACCESS:          0 HIT:          0 MISS:          0 MSHR_MERGE:          0
cpu0->cpu0_ITLB PREFETCH     ACCESS:          0 HIT:          0 MISS:          0 MSHR_MERGE:          0
cpu0->cpu0_ITLB WRITE        ACCESS:          0 HIT:          0 MISS:          0 MSHR_MERGE:          0
cpu0->cpu0_ITLB TRANSLATION  ACCESS:          0 HIT:          0 MISS:          0 MSHR_MERGE:          0
cpu0->cpu0_ITLB PREFETCH REQUESTED:          0 ISSUED:          0 USEFUL:          0 USELESS:          0
cpu0->cpu0_ITLB AVERAGE MISS LATENCY: 751 cycles
cpu0->cpu0_DTLB TOTAL        ACCESS:   42334720 HIT:   42323224 MISS:      11496 MSHR_MERGE:       4928
cpu0->cpu0_DTLB LOAD         ACCESS:   42334720 HIT:   42323224 MISS:      11496 MSHR_MERGE:       4928
cpu0->cpu0_DTLB RFO          ACCESS:          0 HIT:          0 MISS:          0 MSHR_MERGE:          0
cpu0->cpu0_DTLB PREFETCH     ACCESS:          0 HIT:          0 MISS:          0 MSHR_MERGE:          0
cpu0->cpu0_DTLB WRITE        ACCESS:          0 HIT:          0 MISS:          0 MSHR_MERGE:          0
cpu0->cpu0_DTLB TRANSLATION  ACCESS:          0 HIT:          0 MISS:          0 MSHR_MERGE:          0
cpu0->cpu0_DTLB PREFETCH REQUESTED:          0 ISSUED:          0 USEFUL:          0 USELESS:          0
cpu0->cpu0_DTLB AVERAGE MISS LATENCY: 18.82 cycles
cpu0->LLC TOTAL        ACCESS:     536634 HIT:     451429 MISS:      85205 MSHR_MERGE:          0
cpu0->LLC LOAD         ACCESS:      11139 HIT:       9446 MISS:       1693 MSHR_MERGE:          0
cpu0->LLC RFO          ACCESS:     261825 HIT:     178506 MISS:      83319 MSHR_MERGE:          0
cpu0->LLC PREFETCH     ACCESS:          0 HIT:          0 MISS:          0 MSHR_MERGE:          0
cpu0->LLC WRITE        ACCESS:     263508 HIT:     263474 MISS:         34 MSHR_MERGE:          0
cpu0->LLC TRANSLATION  ACCESS:        162 HIT:          3 MISS:        159 MSHR_MERGE:          0
cpu0->LLC PREFETCH REQUESTED:          0 ISSUED:          0 USEFUL:          0 USELESS:          0
cpu0->LLC AVERAGE MISS LATENCY: 188.1 cycles

DRAM Statistics

Channel 0 RQ ROW_BUFFER_HIT:         24
  ROW_BUFFER_MISS:      85141
  AVG DBUS CONGESTED CYCLE: 7.501
Channel 0 WQ ROW_BUFFER_HIT:       1665
  ROW_BUFFER_MISS:      80867
  FULL:          0
Channel 0 REFRESHES ISSUED:       4191
