[VMEM] WARNING: physical memory size is smaller than virtual memory size.

*** ChampSim Multicore Out-of-Order Simulator ***
Warmup Instructions: 50000000
Simulation Instructions: 100000000
Number of CPUs: 1
Page size: 4096

Off-chip DRAM Size: 16 GiB Channels: 1 Width: 64-bit Data Rate: 3205 MT/s
Heartbeat CPU 0 instructions: 10000000 cycles: 2560240 heartbeat IPC: 3.906 cumulative IPC: 3.906 (Simulation time: 00 hr 00 min 45 sec)
Heartbeat CPU 0 instructions: 20000003 cycles: 5072674 heartbeat IPC: 3.98 cumulative IPC: 3.943 (Simulation time: 00 hr 01 min 31 sec)
Heartbeat CPU 0 instructions: 30000005 cycles: 7589916 heartbeat IPC: 3.973 cumulative IPC: 3.953 (Simulation time: 00 hr 02 min 16 sec)
Heartbeat CPU 0 instructions: 40000008 cycles: 10101983 heartbeat IPC: 3.981 cumulative IPC: 3.96 (Simulation time: 00 hr 03 min 01 sec)
Warmup finished CPU 0 instructions: 50000000 cycles: 12616325 cumulative IPC: 3.963 (Simulation time: 00 hr 03 min 46 sec)
Warmup complete CPU 0 instructions: 50000000 cycles: 12616325 cumulative IPC: 3.963 (Simulation time: 00 hr 03 min 46 sec)
Heartbeat CPU 0 instructions: 50000008 cycles: 12616327 heartbeat IPC: 3.977 cumulative IPC: 4 (Simulation time: 00 hr 03 min 46 sec)
Heartbeat CPU 0 instructions: 60000008 cycles: 16871929 heartbeat IPC: 2.35 cumulative IPC: 2.35 (Simulation time: 00 hr 04 min 41 sec)
Heartbeat CPU 0 instructions: 70000010 cycles: 21187511 heartbeat IPC: 2.317 cumulative IPC: 2.333 (Simulation time: 00 hr 05 min 36 sec)
Heartbeat CPU 0 instructions: 80000011 cycles: 25448135 heartbeat IPC: 2.347 cumulative IPC: 2.338 (Simulation time: 00 hr 06 min 27 sec)
Heartbeat CPU 0 instructions: 90000012 cycles: 29722105 heartbeat IPC: 2.34 cumulative IPC: 2.338 (Simulation time: 00 hr 07 min 22 sec)
Heartbeat CPU 0 instructions: 100000012 cycles: 33906380 heartbeat IPC: 2.39 cumulative IPC: 2.349 (Simulation time: 00 hr 08 min 17 sec)
Heartbeat CPU 0 instructions: 110000015 cycles: 37986731 heartbeat IPC: 2.451 cumulative IPC: 2.365 (Simulation time: 00 hr 09 min 11 sec)
Heartbeat CPU 0 instructions: 120000016 cycles: 50704884 heartbeat IPC: 0.7863 cumulative IPC: 1.838 (Simulation time: 00 hr 11 min 24 sec)
Heartbeat CPU 0 instructions: 130000017 cycles: 54751719 heartbeat IPC: 2.471 cumulative IPC: 1.899 (Simulation time: 00 hr 12 min 22 sec)
Heartbeat CPU 0 instructions: 140000021 cycles: 61965039 heartbeat IPC: 1.386 cumulative IPC: 1.824 (Simulation time: 00 hr 13 min 40 sec)
Simulation finished CPU 0 instructions: 100000000 cycles: 54206590 cumulative IPC: 1.845 (Simulation time: 00 hr 14 min 41 sec)
Simulation complete CPU 0 instructions: 100000000 cycles: 54206590 cumulative IPC: 1.845 (Simulation time: 00 hr 14 min 41 sec)

ChampSim completed all CPUs

=== Simulation ===
CPU 0 runs /home/zevs_gromovergec/Programming/Interview/Sber/Programming_modulating/ChampSim/tracers/625.x264_s-39B.champsimtrace.xz

Region of Interest Statistics

CPU 0 cumulative IPC: 1.845 instructions: 100000000 cycles: 54206590
CPU 0 Branch Prediction Accuracy: 91.33% MPKI: 3.491 Average ROB Occupancy at Mispredict: 77.71
Branch type MPKI
BRANCH_DIRECT_JUMP: 0.0026
BRANCH_INDIRECT: 0.00318
BRANCH_CONDITIONAL: 3.316
BRANCH_DIRECT_CALL: 0.0024
BRANCH_INDIRECT_CALL: 0.06673
BRANCH_RETURN: 0.1004

cpu0->cpu0_STLB TOTAL        ACCESS:      92243 HIT:      89765 MISS:       2478 MSHR_MERGE:          0
cpu0->cpu0_STLB LOAD         ACCESS:      92243 HIT:      89765 MISS:       2478 MSHR_MERGE:          0
cpu0->cpu0_STLB RFO          ACCESS:          0 HIT:          0 MISS:          0 MSHR_MERGE:          0
cpu0->cpu0_STLB PREFETCH     ACCESS:          0 HIT:          0 MISS:          0 MSHR_MERGE:          0
cpu0->cpu0_STLB WRITE        ACCESS:          0 HIT:          0 MISS:          0 MSHR_MERGE:          0
cpu0->cpu0_STLB TRANSLATION  ACCESS:          0 HIT:          0 MISS:          0 MSHR_MERGE:          0
cpu0->cpu0_STLB PREFETCH REQUESTED:          0 ISSUED:          0 USEFUL:          0 USELESS:          0
cpu0->cpu0_STLB AVERAGE MISS LATENCY: 740.8 cycles
cpu0->cpu0_L2C TOTAL        ACCESS:     847592 HIT:     631763 MISS:     215829 MSHR_MERGE:          0
cpu0->cpu0_L2C LOAD         ACCESS:     643111 HIT:     501503 MISS:     141608 MSHR_MERGE:          0
cpu0->cpu0_L2C RFO          ACCESS:      86007 HIT:      15277 MISS:      70730 MSHR_MERGE:          0
cpu0->cpu0_L2C PREFETCH     ACCESS:          0 HIT:          0 MISS:          0 MSHR_MERGE:          0
cpu0->cpu0_L2C WRITE        ACCESS:     114948 HIT:     114940 MISS:          8 MSHR_MERGE:          0
cpu0->cpu0_L2C TRANSLATION  ACCESS:       3526 HIT:         43 MISS:       3483 MSHR_MERGE:          0
cpu0->cpu0_L2C PREFETCH REQUESTED:          0 ISSUED:          0 USEFUL:          0 USELESS:          0
cpu0->cpu0_L2C AVERAGE MISS LATENCY: 218 cycles
cpu0->cpu0_L1I TOTAL        ACCESS:   11186852 HIT:   10446894 MISS:     739958 MSHR_MERGE:     294157
cpu0->cpu0_L1I LOAD         ACCESS:   11186852 HIT:   10446894 MISS:     739958 MSHR_MERGE:     294157
cpu0->cpu0_L1I RFO          ACCESS:          0 HIT:          0 MISS:          0 MSHR_MERGE:          0
cpu0->cpu0_L1I PREFETCH     ACCESS:          0 HIT:          0 MISS:          0 MSHR_MERGE:          0
cpu0->cpu0_L1I WRITE        ACCESS:          0 HIT:          0 MISS:          0 MSHR_MERGE:          0
cpu0->cpu0_L1I TRANSLATION  ACCESS:          0 HIT:          0 MISS:          0 MSHR_MERGE:          0
cpu0->cpu0_L1I PREFETCH REQUESTED:          0 ISSUED:          0 USEFUL:          0 USELESS:          0
cpu0->cpu0_L1I AVERAGE MISS LATENCY: 8.084 cycles
cpu0->cpu0_L1D TOTAL        ACCESS:   21703388 HIT:   20600053 MISS:    1103335 MSHR_MERGE:     816490
cpu0->cpu0_L1D LOAD         ACCESS:   15029797 HIT:   14588848 MISS:     440949 MSHR_MERGE:     243639
cpu0->cpu0_L1D RFO          ACCESS:          0 HIT:          0 MISS:          0 MSHR_MERGE:          0
cpu0->cpu0_L1D PREFETCH     ACCESS:          0 HIT:          0 MISS:          0 MSHR_MERGE:          0
cpu0->cpu0_L1D WRITE        ACCESS:    6668616 HIT:    6009847 MISS:     658769 MSHR_MERGE:     572760
cpu0->cpu0_L1D TRANSLATION  ACCESS:       4975 HIT:       1358 MISS:       3617 MSHR_MERGE:         91
cpu0->cpu0_L1D PREFETCH REQUESTED:          0 ISSUED:          0 USEFUL:          0 USELESS:          0
cpu0->cpu0_L1D AVERAGE MISS LATENCY: 171.3 cycles
cpu0->cpu0_ITLB TOTAL        ACCESS:    9850013 HIT:    9846580 MISS:       3433 MSHR_MERGE:       2412
cpu0->cpu0_ITLB LOAD         ACCESS:    9850013 HIT:    9846580 MISS:       3433 MSHR_MERGE:       2412
cpu0->cpu0_ITLB RFO          ACCESS:          0 HIT:          0 MISS:          0 MSHR_MERGE:          0
cpu0->cpu0_ITLB PREFETCH     ACCESS:          0 HIT:          0 MISS:          0 MSHR_MERGE:          0
cpu0->cpu0_ITLB WRITE        ACCESS:          0 HIT:          0 MISS:          0 MSHR_MERGE:          0
cpu0->cpu0_ITLB TRANSLATION  ACCESS:          0 HIT:          0 MISS:          0 MSHR_MERGE:          0
cpu0->cpu0_ITLB PREFETCH REQUESTED:          0 ISSUED:          0 USEFUL:          0 USELESS:          0
cpu0->cpu0_ITLB AVERAGE MISS LATENCY: 56.21 cycles
cpu0->cpu0_DTLB TOTAL        ACCESS:   20554082 HIT:   20362616 MISS:     191466 MSHR_MERGE:     100244
cpu0->cpu0_DTLB LOAD         ACCESS:   20554082 HIT:   20362616 MISS:     191466 MSHR_MERGE:     100244
cpu0->cpu0_DTLB RFO          ACCESS:          0 HIT:          0 MISS:          0 MSHR_MERGE:          0
cpu0->cpu0_DTLB PREFETCH     ACCESS:          0 HIT:          0 MISS:          0 MSHR_MERGE:          0
cpu0->cpu0_DTLB WRITE        ACCESS:          0 HIT:          0 MISS:          0 MSHR_MERGE:          0
cpu0->cpu0_DTLB TRANSLATION  ACCESS:          0 HIT:          0 MISS:          0 MSHR_MERGE:          0
cpu0->cpu0_DTLB PREFETCH REQUESTED:          0 ISSUED:          0 USEFUL:          0 USELESS:          0
cpu0->cpu0_DTLB AVERAGE MISS LATENCY: 24.58 cycles
cpu0->LLC TOTAL        ACCESS:     307469 HIT:     119230 MISS:     188239 MSHR_MERGE:          0
cpu0->LLC LOAD         ACCESS:     141608 HIT:      28143 MISS:     113465 MSHR_MERGE:          0
cpu0->LLC RFO          ACCESS:      70730 HIT:          1 MISS:      70729 MSHR_MERGE:          0
cpu0->LLC PREFETCH     ACCESS:          0 HIT:          0 MISS:          0 MSHR_MERGE:          0
cpu0->LLC WRITE        ACCESS:      91648 HIT:      91084 MISS:        564 MSHR_MERGE:          0
cpu0->LLC TRANSLATION  ACCESS:       3483 HIT:          2 MISS:       3481 MSHR_MERGE:          0
cpu0->LLC PREFETCH REQUESTED:          0 ISSUED:          0 USEFUL:          0 USELESS:          0
cpu0->LLC AVERAGE MISS LATENCY: 231.8 cycles

DRAM Statistics

Channel 0 RQ ROW_BUFFER_HIT:       3512
  ROW_BUFFER_MISS:     184145
  AVG DBUS CONGESTED CYCLE: 10.86
Channel 0 WQ ROW_BUFFER_HIT:      24193
  ROW_BUFFER_MISS:      67246
  FULL:          0
Channel 0 REFRESHES ISSUED:       4517
