[VMEM] WARNING: physical memory size is smaller than virtual memory size.

*** ChampSim Multicore Out-of-Order Simulator ***
Warmup Instructions: 50000000
Simulation Instructions: 100000000
Number of CPUs: 1
Page size: 4096

Off-chip DRAM Size: 16 GiB Channels: 1 Width: 64-bit Data Rate: 3205 MT/s
Heartbeat CPU 0 instructions: 10000003 cycles: 2675692 heartbeat IPC: 3.737 cumulative IPC: 3.737 (Simulation time: 00 hr 00 min 49 sec)
Heartbeat CPU 0 instructions: 20000004 cycles: 5356235 heartbeat IPC: 3.731 cumulative IPC: 3.734 (Simulation time: 00 hr 01 min 39 sec)
Heartbeat CPU 0 instructions: 30000004 cycles: 8082043 heartbeat IPC: 3.669 cumulative IPC: 3.712 (Simulation time: 00 hr 02 min 28 sec)
Heartbeat CPU 0 instructions: 40000005 cycles: 10803569 heartbeat IPC: 3.674 cumulative IPC: 3.702 (Simulation time: 00 hr 03 min 18 sec)
Warmup finished CPU 0 instructions: 50000001 cycles: 13518469 cumulative IPC: 3.699 (Simulation time: 00 hr 04 min 08 sec)
Warmup complete CPU 0 instructions: 50000001 cycles: 13518469 cumulative IPC: 3.699 (Simulation time: 00 hr 04 min 08 sec)
Heartbeat CPU 0 instructions: 50000006 cycles: 13518470 heartbeat IPC: 3.683 cumulative IPC: 5 (Simulation time: 00 hr 04 min 08 sec)
Heartbeat CPU 0 instructions: 60000009 cycles: 23334898 heartbeat IPC: 1.019 cumulative IPC: 1.019 (Simulation time: 00 hr 06 min 22 sec)
Heartbeat CPU 0 instructions: 70000011 cycles: 33123095 heartbeat IPC: 1.022 cumulative IPC: 1.02 (Simulation time: 00 hr 08 min 35 sec)
Heartbeat CPU 0 instructions: 80000012 cycles: 42952826 heartbeat IPC: 1.017 cumulative IPC: 1.019 (Simulation time: 00 hr 10 min 50 sec)
Heartbeat CPU 0 instructions: 90000014 cycles: 64053110 heartbeat IPC: 0.4739 cumulative IPC: 0.7915 (Simulation time: 00 hr 14 min 57 sec)
Heartbeat CPU 0 instructions: 100000015 cycles: 87104423 heartbeat IPC: 0.4338 cumulative IPC: 0.6795 (Simulation time: 00 hr 19 min 18 sec)
Heartbeat CPU 0 instructions: 110000017 cycles: 108684678 heartbeat IPC: 0.4634 cumulative IPC: 0.6305 (Simulation time: 00 hr 23 min 24 sec)
Heartbeat CPU 0 instructions: 120000019 cycles: 121410915 heartbeat IPC: 0.7858 cumulative IPC: 0.6488 (Simulation time: 00 hr 25 min 49 sec)
Heartbeat CPU 0 instructions: 130000021 cycles: 134070891 heartbeat IPC: 0.7899 cumulative IPC: 0.6636 (Simulation time: 00 hr 28 min 03 sec)
Heartbeat CPU 0 instructions: 140000023 cycles: 146715388 heartbeat IPC: 0.7909 cumulative IPC: 0.6757 (Simulation time: 00 hr 30 min 27 sec)
Simulation finished CPU 0 instructions: 100000000 cycles: 145520269 cumulative IPC: 0.6872 (Simulation time: 00 hr 32 min 45 sec)
Simulation complete CPU 0 instructions: 100000000 cycles: 145520269 cumulative IPC: 0.6872 (Simulation time: 00 hr 32 min 45 sec)

ChampSim completed all CPUs

=== Simulation ===
CPU 0 runs /home/zevs_gromovergec/Programming/Interview/Sber/Programming_modulating/ChampSim/tracers/437.leslie3d-273B.champsimtrace.xz

Region of Interest Statistics

CPU 0 cumulative IPC: 0.6872 instructions: 100000000 cycles: 145520269
CPU 0 Branch Prediction Accuracy: 99.19% MPKI: 0.1548 Average ROB Occupancy at Mispredict: 335.8
Branch type MPKI
BRANCH_DIRECT_JUMP: 6e-05
BRANCH_INDIRECT: 0
BRANCH_CONDITIONAL: 0.1547
BRANCH_DIRECT_CALL: 0
BRANCH_INDIRECT_CALL: 0
BRANCH_RETURN: 1e-05

cpu0->cpu0_STLB TOTAL        ACCESS:      14231 HIT:        502 MISS:      13729 MSHR_MERGE:          0
cpu0->cpu0_STLB LOAD         ACCESS:      14231 HIT:        502 MISS:      13729 MSHR_MERGE:          0
cpu0->cpu0_STLB RFO          ACCESS:          0 HIT:          0 MISS:          0 MSHR_MERGE:          0
cpu0->cpu0_STLB PREFETCH     ACCESS:          0 HIT:          0 MISS:          0 MSHR_MERGE:          0
cpu0->cpu0_STLB WRITE        ACCESS:          0 HIT:          0 MISS:          0 MSHR_MERGE:          0
cpu0->cpu0_STLB TRANSLATION  ACCESS:          0 HIT:          0 MISS:          0 MSHR_MERGE:          0
cpu0->cpu0_STLB PREFETCH REQUESTED:          0 ISSUED:          0 USEFUL:          0 USELESS:          0
cpu0->cpu0_STLB AVERAGE MISS LATENCY: 472.9 cycles
cpu0->cpu0_L2C TOTAL        ACCESS:    1162913 HIT:     285690 MISS:     877223 MSHR_MERGE:          0
cpu0->cpu0_L2C LOAD         ACCESS:     606598 HIT:      11595 MISS:     595003 MSHR_MERGE:          0
cpu0->cpu0_L2C RFO          ACCESS:     268539 HIT:       3485 MISS:     265054 MSHR_MERGE:          0
cpu0->cpu0_L2C PREFETCH     ACCESS:          0 HIT:          0 MISS:          0 MSHR_MERGE:          0
cpu0->cpu0_L2C WRITE        ACCESS:     271822 HIT:     270525 MISS:       1297 MSHR_MERGE:          0
cpu0->cpu0_L2C TRANSLATION  ACCESS:      15954 HIT:         85 MISS:      15869 MSHR_MERGE:          0
cpu0->cpu0_L2C PREFETCH REQUESTED:          0 ISSUED:          0 USEFUL:          0 USELESS:          0
cpu0->cpu0_L2C AVERAGE MISS LATENCY: 224.3 cycles
cpu0->cpu0_L1I TOTAL        ACCESS:   21519040 HIT:   21518883 MISS:        157 MSHR_MERGE:         69
cpu0->cpu0_L1I LOAD         ACCESS:   21519040 HIT:   21518883 MISS:        157 MSHR_MERGE:         69
cpu0->cpu0_L1I RFO          ACCESS:          0 HIT:          0 MISS:          0 MSHR_MERGE:          0
cpu0->cpu0_L1I PREFETCH     ACCESS:          0 HIT:          0 MISS:          0 MSHR_MERGE:          0
cpu0->cpu0_L1I WRITE        ACCESS:          0 HIT:          0 MISS:          0 MSHR_MERGE:          0
cpu0->cpu0_L1I TRANSLATION  ACCESS:          0 HIT:          0 MISS:          0 MSHR_MERGE:          0
cpu0->cpu0_L1I PREFETCH REQUESTED:          0 ISSUED:          0 USEFUL:          0 USELESS:          0
cpu0->cpu0_L1I AVERAGE MISS LATENCY: 235.9 cycles
cpu0->cpu0_L1D TOTAL        ACCESS:   35844015 HIT:   33385532 MISS:    2458483 MSHR_MERGE:    1567480
cpu0->cpu0_L1D LOAD         ACCESS:   33600195 HIT:   32648411 MISS:     951784 MSHR_MERGE:     345274
cpu0->cpu0_L1D RFO          ACCESS:          0 HIT:          0 MISS:          0 MSHR_MERGE:          0
cpu0->cpu0_L1D PREFETCH     ACCESS:          0 HIT:          0 MISS:          0 MSHR_MERGE:          0
cpu0->cpu0_L1D WRITE        ACCESS:    2216348 HIT:     725609 MISS:    1490739 MSHR_MERGE:    1222200
cpu0->cpu0_L1D TRANSLATION  ACCESS:      27472 HIT:      11512 MISS:      15960 MSHR_MERGE:          6
cpu0->cpu0_L1D PREFETCH REQUESTED:          0 ISSUED:          0 USEFUL:          0 USELESS:          0
cpu0->cpu0_L1D AVERAGE MISS LATENCY: 229.8 cycles
cpu0->cpu0_ITLB TOTAL        ACCESS:   17943535 HIT:   17943528 MISS:          7 MSHR_MERGE:          5
cpu0->cpu0_ITLB LOAD         ACCESS:   17943535 HIT:   17943528 MISS:          7 MSHR_MERGE:          5
cpu0->cpu0_ITLB RFO          ACCESS:          0 HIT:          0 MISS:          0 MSHR_MERGE:          0
cpu0->cpu0_ITLB PREFETCH     ACCESS:          0 HIT:          0 MISS:          0 MSHR_MERGE:          0
cpu0->cpu0_ITLB WRITE        ACCESS:          0 HIT:          0 MISS:          0 MSHR_MERGE:          0
cpu0->cpu0_ITLB TRANSLATION  ACCESS:          0 HIT:          0 MISS:          0 MSHR_MERGE:          0
cpu0->cpu0_ITLB PREFETCH REQUESTED:          0 ISSUED:          0 USEFUL:          0 USELESS:          0
cpu0->cpu0_ITLB AVERAGE MISS LATENCY: 896.5 cycles
cpu0->cpu0_DTLB TOTAL        ACCESS:   34520401 HIT:   34456458 MISS:      63943 MSHR_MERGE:      49714
cpu0->cpu0_DTLB LOAD         ACCESS:   34520401 HIT:   34456458 MISS:      63943 MSHR_MERGE:      49714
cpu0->cpu0_DTLB RFO          ACCESS:          0 HIT:          0 MISS:          0 MSHR_MERGE:          0
cpu0->cpu0_DTLB PREFETCH     ACCESS:          0 HIT:          0 MISS:          0 MSHR_MERGE:          0
cpu0->cpu0_DTLB WRITE        ACCESS:          0 HIT:          0 MISS:          0 MSHR_MERGE:          0
cpu0->cpu0_DTLB TRANSLATION  ACCESS:          0 HIT:          0 MISS:          0 MSHR_MERGE:          0
cpu0->cpu0_DTLB PREFETCH REQUESTED:          0 ISSUED:          0 USEFUL:          0 USELESS:          0
cpu0->cpu0_DTLB AVERAGE MISS LATENCY: 462.1 cycles
cpu0->LLC TOTAL        ACCESS:    1142200 HIT:     268636 MISS:     873564 MSHR_MERGE:          0
cpu0->LLC LOAD         ACCESS:     595003 HIT:       1762 MISS:     593241 MSHR_MERGE:          0
cpu0->LLC RFO          ACCESS:     265054 HIT:        503 MISS:     264551 MSHR_MERGE:          0
cpu0->LLC PREFETCH     ACCESS:          0 HIT:          0 MISS:          0 MSHR_MERGE:          0
cpu0->LLC WRITE        ACCESS:     266274 HIT:     266273 MISS:          1 MSHR_MERGE:          0
cpu0->LLC TRANSLATION  ACCESS:      15869 HIT:         98 MISS:      15771 MSHR_MERGE:          0
cpu0->LLC PREFETCH REQUESTED:          0 ISSUED:          0 USEFUL:          0 USELESS:          0
cpu0->LLC AVERAGE MISS LATENCY: 209.2 cycles

DRAM Statistics

Channel 0 RQ ROW_BUFFER_HIT:         99
  ROW_BUFFER_MISS:     873464
  AVG DBUS CONGESTED CYCLE: 11.51
Channel 0 WQ ROW_BUFFER_HIT:     103231
  ROW_BUFFER_MISS:     172475
  FULL:          0
Channel 0 REFRESHES ISSUED:      12127
