[VMEM] WARNING: physical memory size is smaller than virtual memory size.

*** ChampSim Multicore Out-of-Order Simulator ***
Warmup Instructions: 50000000
Simulation Instructions: 100000000
Number of CPUs: 1
Page size: 4096

Off-chip DRAM Size: 16 GiB Channels: 1 Width: 64-bit Data Rate: 3205 MT/s
Heartbeat CPU 0 instructions: 10000001 cycles: 2722434 heartbeat IPC: 3.673 cumulative IPC: 3.673 (Simulation time: 00 hr 00 min 50 sec)
Heartbeat CPU 0 instructions: 20000003 cycles: 5352531 heartbeat IPC: 3.802 cumulative IPC: 3.737 (Simulation time: 00 hr 01 min 26 sec)
Heartbeat CPU 0 instructions: 30000003 cycles: 7991090 heartbeat IPC: 3.79 cumulative IPC: 3.754 (Simulation time: 00 hr 02 min 15 sec)
Heartbeat CPU 0 instructions: 40000005 cycles: 10628705 heartbeat IPC: 3.791 cumulative IPC: 3.763 (Simulation time: 00 hr 02 min 48 sec)
Warmup finished CPU 0 instructions: 50000000 cycles: 13266205 cumulative IPC: 3.769 (Simulation time: 00 hr 03 min 16 sec)
Warmup complete CPU 0 instructions: 50000000 cycles: 13266205 cumulative IPC: 3.769 (Simulation time: 00 hr 03 min 16 sec)
Heartbeat CPU 0 instructions: 50000005 cycles: 13266206 heartbeat IPC: 3.791 cumulative IPC: 5 (Simulation time: 00 hr 03 min 16 sec)
Heartbeat CPU 0 instructions: 60000009 cycles: 33014945 heartbeat IPC: 0.5064 cumulative IPC: 0.5064 (Simulation time: 00 hr 05 min 02 sec)
Heartbeat CPU 0 instructions: 70000010 cycles: 61211094 heartbeat IPC: 0.3547 cumulative IPC: 0.4171 (Simulation time: 00 hr 07 min 22 sec)
Heartbeat CPU 0 instructions: 80000010 cycles: 89392662 heartbeat IPC: 0.3548 cumulative IPC: 0.3941 (Simulation time: 00 hr 09 min 30 sec)
Heartbeat CPU 0 instructions: 90000010 cycles: 117629114 heartbeat IPC: 0.3542 cumulative IPC: 0.3833 (Simulation time: 00 hr 11 min 32 sec)
Heartbeat CPU 0 instructions: 100000012 cycles: 145278678 heartbeat IPC: 0.3617 cumulative IPC: 0.3788 (Simulation time: 00 hr 13 min 21 sec)
Heartbeat CPU 0 instructions: 110000015 cycles: 159680601 heartbeat IPC: 0.6944 cumulative IPC: 0.4098 (Simulation time: 00 hr 14 min 24 sec)
Heartbeat CPU 0 instructions: 120000019 cycles: 168416261 heartbeat IPC: 1.145 cumulative IPC: 0.4512 (Simulation time: 00 hr 15 min 10 sec)
Heartbeat CPU 0 instructions: 130000021 cycles: 177566056 heartbeat IPC: 1.093 cumulative IPC: 0.4869 (Simulation time: 00 hr 16 min 00 sec)
Heartbeat CPU 0 instructions: 140000021 cycles: 186717379 heartbeat IPC: 1.093 cumulative IPC: 0.5189 (Simulation time: 00 hr 16 min 50 sec)
Simulation finished CPU 0 instructions: 100000004 cycles: 182635905 cumulative IPC: 0.5475 (Simulation time: 00 hr 17 min 40 sec)
Simulation complete CPU 0 instructions: 100000004 cycles: 182635905 cumulative IPC: 0.5475 (Simulation time: 00 hr 17 min 40 sec)

ChampSim completed all CPUs

=== Simulation ===
CPU 0 runs ./tracers/437.leslie3d-149B.champsimtrace.xz

Region of Interest Statistics

CPU 0 cumulative IPC: 0.5475 instructions: 100000004 cycles: 182635905
CPU 0 Branch Prediction Accuracy: 99.05% MPKI: 0.353 Average ROB Occupancy at Mispredict: 300.1
Branch type MPKI
BRANCH_DIRECT_JUMP: 0.00026
BRANCH_INDIRECT: 0
BRANCH_CONDITIONAL: 0.3518
BRANCH_DIRECT_CALL: 0.00046
BRANCH_INDIRECT_CALL: 0
BRANCH_RETURN: 0.00043

cpu0->cpu0_STLB TOTAL        ACCESS:      30945 HIT:       4800 MISS:      26145 MSHR_MERGE:          0
cpu0->cpu0_STLB LOAD         ACCESS:      30945 HIT:       4800 MISS:      26145 MSHR_MERGE:          0
cpu0->cpu0_STLB RFO          ACCESS:          0 HIT:          0 MISS:          0 MSHR_MERGE:          0
cpu0->cpu0_STLB PREFETCH     ACCESS:          0 HIT:          0 MISS:          0 MSHR_MERGE:          0
cpu0->cpu0_STLB WRITE        ACCESS:          0 HIT:          0 MISS:          0 MSHR_MERGE:          0
cpu0->cpu0_STLB TRANSLATION  ACCESS:          0 HIT:          0 MISS:          0 MSHR_MERGE:          0
cpu0->cpu0_STLB PREFETCH REQUESTED:          0 ISSUED:          0 USEFUL:          0 USELESS:          0
cpu0->cpu0_STLB AVERAGE MISS LATENCY: 482.8 cycles
cpu0->cpu0_L2C TOTAL        ACCESS:    1630772 HIT:      42302 MISS:    1588470 MSHR_MERGE:          0
cpu0->cpu0_L2C LOAD         ACCESS:     731290 HIT:       7681 MISS:     723609 MSHR_MERGE:          0
cpu0->cpu0_L2C RFO          ACCESS:     356173 HIT:      13549 MISS:     342624 MSHR_MERGE:          0
cpu0->cpu0_L2C PREFETCH     ACCESS:          0 HIT:          0 MISS:          0 MSHR_MERGE:          0
cpu0->cpu0_L2C WRITE        ACCESS:     503294 HIT:      21065 MISS:     482229 MSHR_MERGE:          0
cpu0->cpu0_L2C TRANSLATION  ACCESS:      40015 HIT:          7 MISS:      40008 MSHR_MERGE:          0
cpu0->cpu0_L2C PREFETCH REQUESTED:          0 ISSUED:          0 USEFUL:          0 USELESS:          0
cpu0->cpu0_L2C AVERAGE MISS LATENCY: 151.1 cycles
cpu0->cpu0_L1I TOTAL        ACCESS:   16939187 HIT:   16938706 MISS:        481 MSHR_MERGE:        195
cpu0->cpu0_L1I LOAD         ACCESS:   16939187 HIT:   16938706 MISS:        481 MSHR_MERGE:        195
cpu0->cpu0_L1I RFO          ACCESS:          0 HIT:          0 MISS:          0 MSHR_MERGE:          0
cpu0->cpu0_L1I PREFETCH     ACCESS:          0 HIT:          0 MISS:          0 MSHR_MERGE:          0
cpu0->cpu0_L1I WRITE        ACCESS:          0 HIT:          0 MISS:          0 MSHR_MERGE:          0
cpu0->cpu0_L1I TRANSLATION  ACCESS:          0 HIT:          0 MISS:          0 MSHR_MERGE:          0
cpu0->cpu0_L1I PREFETCH REQUESTED:          0 ISSUED:          0 USEFUL:          0 USELESS:          0
cpu0->cpu0_L1I AVERAGE MISS LATENCY: 231.9 cycles
cpu0->cpu0_L1D TOTAL        ACCESS:   32202983 HIT:   28830091 MISS:    3372892 MSHR_MERGE:    2245699
cpu0->cpu0_L1D LOAD         ACCESS:   27442142 HIT:   25739620 MISS:    1702522 MSHR_MERGE:     971518
cpu0->cpu0_L1D RFO          ACCESS:          0 HIT:          0 MISS:          0 MSHR_MERGE:          0
cpu0->cpu0_L1D PREFETCH     ACCESS:          0 HIT:          0 MISS:          0 MSHR_MERGE:          0
cpu0->cpu0_L1D WRITE        ACCESS:    4708521 HIT:    3078171 MISS:    1630350 MSHR_MERGE:    1274176
cpu0->cpu0_L1D TRANSLATION  ACCESS:      52320 HIT:      12300 MISS:      40020 MSHR_MERGE:          5
cpu0->cpu0_L1D PREFETCH REQUESTED:          0 ISSUED:          0 USEFUL:          0 USELESS:          0
cpu0->cpu0_L1D AVERAGE MISS LATENCY: 220.2 cycles
cpu0->cpu0_ITLB TOTAL        ACCESS:   14436719 HIT:   14436675 MISS:         44 MSHR_MERGE:         29
cpu0->cpu0_ITLB LOAD         ACCESS:   14436719 HIT:   14436675 MISS:         44 MSHR_MERGE:         29
cpu0->cpu0_ITLB RFO          ACCESS:          0 HIT:          0 MISS:          0 MSHR_MERGE:          0
cpu0->cpu0_ITLB PREFETCH     ACCESS:          0 HIT:          0 MISS:          0 MSHR_MERGE:          0
cpu0->cpu0_ITLB WRITE        ACCESS:          0 HIT:          0 MISS:          0 MSHR_MERGE:          0
cpu0->cpu0_ITLB TRANSLATION  ACCESS:          0 HIT:          0 MISS:          0 MSHR_MERGE:          0
cpu0->cpu0_ITLB PREFETCH REQUESTED:          0 ISSUED:          0 USEFUL:          0 USELESS:          0
cpu0->cpu0_ITLB AVERAGE MISS LATENCY: 798.3 cycles
cpu0->cpu0_DTLB TOTAL        ACCESS:   31003076 HIT:   30910314 MISS:      92762 MSHR_MERGE:      61832
cpu0->cpu0_DTLB LOAD         ACCESS:   31003076 HIT:   30910314 MISS:      92762 MSHR_MERGE:      61832
cpu0->cpu0_DTLB RFO          ACCESS:          0 HIT:          0 MISS:          0 MSHR_MERGE:          0
cpu0->cpu0_DTLB PREFETCH     ACCESS:          0 HIT:          0 MISS:          0 MSHR_MERGE:          0
cpu0->cpu0_DTLB WRITE        ACCESS:          0 HIT:          0 MISS:          0 MSHR_MERGE:          0
cpu0->cpu0_DTLB TRANSLATION  ACCESS:          0 HIT:          0 MISS:          0 MSHR_MERGE:          0
cpu0->cpu0_DTLB PREFETCH REQUESTED:          0 ISSUED:          0 USEFUL:          0 USELESS:          0
cpu0->cpu0_DTLB AVERAGE MISS LATENCY: 413.5 cycles
cpu0->LLC TOTAL        ACCESS:    1593479 HIT:     525043 MISS:    1068436 MSHR_MERGE:          0
cpu0->LLC LOAD         ACCESS:     723609 HIT:      24440 MISS:     699169 MSHR_MERGE:          0
cpu0->LLC RFO          ACCESS:     342624 HIT:       3958 MISS:     338666 MSHR_MERGE:          0
cpu0->LLC PREFETCH     ACCESS:          0 HIT:          0 MISS:          0 MSHR_MERGE:          0
cpu0->LLC WRITE        ACCESS:     487238 HIT:     487178 MISS:         60 MSHR_MERGE:          0
cpu0->LLC TRANSLATION  ACCESS:      40008 HIT:       9467 MISS:      30541 MSHR_MERGE:          0
cpu0->LLC PREFETCH REQUESTED:          0 ISSUED:          0 USEFUL:          0 USELESS:          0
cpu0->LLC AVERAGE MISS LATENCY: 206.3 cycles

DRAM Statistics

Channel 0 RQ ROW_BUFFER_HIT:       1689
  ROW_BUFFER_MISS:    1066666
  AVG DBUS CONGESTED CYCLE: 10.57
Channel 0 WQ ROW_BUFFER_HIT:     160676
  ROW_BUFFER_MISS:     314807
  FULL:          0
Channel 0 REFRESHES ISSUED:      15220
