[VMEM] WARNING: physical memory size is smaller than virtual memory size.

*** ChampSim Multicore Out-of-Order Simulator ***
Warmup Instructions: 50000000
Simulation Instructions: 100000000
Number of CPUs: 1
Page size: 4096

Off-chip DRAM Size: 16 GiB Channels: 1 Width: 64-bit Data Rate: 3205 MT/s
*** Reached end of trace: (0, "./tracers/456.hmmer-191B.champsimtrace.xz")
*** Reached end of trace: (0, "./tracers/456.hmmer-191B.champsimtrace.xz")
*** Reached end of trace: (0, "./tracers/456.hmmer-191B.champsimtrace.xz")
*** Reached end of trace: (0, "./tracers/456.hmmer-191B.champsimtrace.xz")
*** Reached end of trace: (0, "./tracers/456.hmmer-191B.champsimtrace.xz")
*** Reached end of trace: (0, "./tracers/456.hmmer-191B.champsimtrace.xz")
*** Reached end of trace: (0, "./tracers/456.hmmer-191B.champsimtrace.xz")
*** Reached end of trace: (0, "./tracers/456.hmmer-191B.champsimtrace.xz")
*** Reached end of trace: (0, "./tracers/456.hmmer-191B.champsimtrace.xz")
*** Reached end of trace: (0, "./tracers/456.hmmer-191B.champsimtrace.xz")
Heartbeat CPU 0 instructions: 10000004 cycles: 2514124 heartbeat IPC: 3.978 cumulative IPC: 3.978 (Simulation time: 00 hr 00 min 54 sec)
*** Reached end of trace: (0, "./tracers/456.hmmer-191B.champsimtrace.xz")
*** Reached end of trace: (0, "./tracers/456.hmmer-191B.champsimtrace.xz")
*** Reached end of trace: (0, "./tracers/456.hmmer-191B.champsimtrace.xz")
*** Reached end of trace: (0, "./tracers/456.hmmer-191B.champsimtrace.xz")
*** Reached end of trace: (0, "./tracers/456.hmmer-191B.champsimtrace.xz")
*** Reached end of trace: (0, "./tracers/456.hmmer-191B.champsimtrace.xz")
*** Reached end of trace: (0, "./tracers/456.hmmer-191B.champsimtrace.xz")
*** Reached end of trace: (0, "./tracers/456.hmmer-191B.champsimtrace.xz")
*** Reached end of trace: (0, "./tracers/456.hmmer-191B.champsimtrace.xz")
*** Reached end of trace: (0, "./tracers/456.hmmer-191B.champsimtrace.xz")
*** Reached end of trace: (0, "./tracers/456.hmmer-191B.champsimtrace.xz")
Heartbeat CPU 0 instructions: 20000006 cycles: 5017373 heartbeat IPC: 3.995 cumulative IPC: 3.986 (Simulation time: 00 hr 01 min 48 sec)
*** Reached end of trace: (0, "./tracers/456.hmmer-191B.champsimtrace.xz")
*** Reached end of trace: (0, "./tracers/456.hmmer-191B.champsimtrace.xz")
*** Reached end of trace: (0, "./tracers/456.hmmer-191B.champsimtrace.xz")
*** Reached end of trace: (0, "./tracers/456.hmmer-191B.champsimtrace.xz")
*** Reached end of trace: (0, "./tracers/456.hmmer-191B.champsimtrace.xz")
*** Reached end of trace: (0, "./tracers/456.hmmer-191B.champsimtrace.xz")
*** Reached end of trace: (0, "./tracers/456.hmmer-191B.champsimtrace.xz")
*** Reached end of trace: (0, "./tracers/456.hmmer-191B.champsimtrace.xz")
*** Reached end of trace: (0, "./tracers/456.hmmer-191B.champsimtrace.xz")
*** Reached end of trace: (0, "./tracers/456.hmmer-191B.champsimtrace.xz")
*** Reached end of trace: (0, "./tracers/456.hmmer-191B.champsimtrace.xz")
Heartbeat CPU 0 instructions: 30000008 cycles: 7520617 heartbeat IPC: 3.995 cumulative IPC: 3.989 (Simulation time: 00 hr 02 min 31 sec)
*** Reached end of trace: (0, "./tracers/456.hmmer-191B.champsimtrace.xz")
*** Reached end of trace: (0, "./tracers/456.hmmer-191B.champsimtrace.xz")
*** Reached end of trace: (0, "./tracers/456.hmmer-191B.champsimtrace.xz")
*** Reached end of trace: (0, "./tracers/456.hmmer-191B.champsimtrace.xz")
*** Reached end of trace: (0, "./tracers/456.hmmer-191B.champsimtrace.xz")
*** Reached end of trace: (0, "./tracers/456.hmmer-191B.champsimtrace.xz")
*** Reached end of trace: (0, "./tracers/456.hmmer-191B.champsimtrace.xz")
*** Reached end of trace: (0, "./tracers/456.hmmer-191B.champsimtrace.xz")
*** Reached end of trace: (0, "./tracers/456.hmmer-191B.champsimtrace.xz")
*** Reached end of trace: (0, "./tracers/456.hmmer-191B.champsimtrace.xz")
*** Reached end of trace: (0, "./tracers/456.hmmer-191B.champsimtrace.xz")
Heartbeat CPU 0 instructions: 40000010 cycles: 10023869 heartbeat IPC: 3.995 cumulative IPC: 3.99 (Simulation time: 00 hr 03 min 18 sec)
*** Reached end of trace: (0, "./tracers/456.hmmer-191B.champsimtrace.xz")
*** Reached end of trace: (0, "./tracers/456.hmmer-191B.champsimtrace.xz")
*** Reached end of trace: (0, "./tracers/456.hmmer-191B.champsimtrace.xz")
*** Reached end of trace: (0, "./tracers/456.hmmer-191B.champsimtrace.xz")
*** Reached end of trace: (0, "./tracers/456.hmmer-191B.champsimtrace.xz")
*** Reached end of trace: (0, "./tracers/456.hmmer-191B.champsimtrace.xz")
*** Reached end of trace: (0, "./tracers/456.hmmer-191B.champsimtrace.xz")
*** Reached end of trace: (0, "./tracers/456.hmmer-191B.champsimtrace.xz")
*** Reached end of trace: (0, "./tracers/456.hmmer-191B.champsimtrace.xz")
*** Reached end of trace: (0, "./tracers/456.hmmer-191B.champsimtrace.xz")
Warmup finished CPU 0 instructions: 50000004 cycles: 12527120 cumulative IPC: 3.991 (Simulation time: 00 hr 04 min 11 sec)
Warmup complete CPU 0 instructions: 50000004 cycles: 12527120 cumulative IPC: 3.991 (Simulation time: 00 hr 04 min 11 sec)
Heartbeat CPU 0 instructions: 50000014 cycles: 12527122 heartbeat IPC: 3.995 cumulative IPC: 5 (Simulation time: 00 hr 04 min 11 sec)
*** Reached end of trace: (0, "./tracers/456.hmmer-191B.champsimtrace.xz")
*** Reached end of trace: (0, "./tracers/456.hmmer-191B.champsimtrace.xz")
*** Reached end of trace: (0, "./tracers/456.hmmer-191B.champsimtrace.xz")
*** Reached end of trace: (0, "./tracers/456.hmmer-191B.champsimtrace.xz")
*** Reached end of trace: (0, "./tracers/456.hmmer-191B.champsimtrace.xz")
*** Reached end of trace: (0, "./tracers/456.hmmer-191B.champsimtrace.xz")
*** Reached end of trace: (0, "./tracers/456.hmmer-191B.champsimtrace.xz")
*** Reached end of trace: (0, "./tracers/456.hmmer-191B.champsimtrace.xz")
*** Reached end of trace: (0, "./tracers/456.hmmer-191B.champsimtrace.xz")
*** Reached end of trace: (0, "./tracers/456.hmmer-191B.champsimtrace.xz")
*** Reached end of trace: (0, "./tracers/456.hmmer-191B.champsimtrace.xz")
Heartbeat CPU 0 instructions: 60000014 cycles: 16988898 heartbeat IPC: 2.241 cumulative IPC: 2.241 (Simulation time: 00 hr 05 min 28 sec)
*** Reached end of trace: (0, "./tracers/456.hmmer-191B.champsimtrace.xz")
*** Reached end of trace: (0, "./tracers/456.hmmer-191B.champsimtrace.xz")
*** Reached end of trace: (0, "./tracers/456.hmmer-191B.champsimtrace.xz")
*** Reached end of trace: (0, "./tracers/456.hmmer-191B.champsimtrace.xz")
*** Reached end of trace: (0, "./tracers/456.hmmer-191B.champsimtrace.xz")
*** Reached end of trace: (0, "./tracers/456.hmmer-191B.champsimtrace.xz")
*** Reached end of trace: (0, "./tracers/456.hmmer-191B.champsimtrace.xz")
*** Reached end of trace: (0, "./tracers/456.hmmer-191B.champsimtrace.xz")
*** Reached end of trace: (0, "./tracers/456.hmmer-191B.champsimtrace.xz")
*** Reached end of trace: (0, "./tracers/456.hmmer-191B.champsimtrace.xz")
*** Reached end of trace: (0, "./tracers/456.hmmer-191B.champsimtrace.xz")
Heartbeat CPU 0 instructions: 70000014 cycles: 21451382 heartbeat IPC: 2.241 cumulative IPC: 2.241 (Simulation time: 00 hr 06 min 26 sec)
*** Reached end of trace: (0, "./tracers/456.hmmer-191B.champsimtrace.xz")
*** Reached end of trace: (0, "./tracers/456.hmmer-191B.champsimtrace.xz")
*** Reached end of trace: (0, "./tracers/456.hmmer-191B.champsimtrace.xz")
*** Reached end of trace: (0, "./tracers/456.hmmer-191B.champsimtrace.xz")
*** Reached end of trace: (0, "./tracers/456.hmmer-191B.champsimtrace.xz")
*** Reached end of trace: (0, "./tracers/456.hmmer-191B.champsimtrace.xz")
*** Reached end of trace: (0, "./tracers/456.hmmer-191B.champsimtrace.xz")
*** Reached end of trace: (0, "./tracers/456.hmmer-191B.champsimtrace.xz")
*** Reached end of trace: (0, "./tracers/456.hmmer-191B.champsimtrace.xz")
*** Reached end of trace: (0, "./tracers/456.hmmer-191B.champsimtrace.xz")
*** Reached end of trace: (0, "./tracers/456.hmmer-191B.champsimtrace.xz")
Heartbeat CPU 0 instructions: 80000016 cycles: 25912804 heartbeat IPC: 2.241 cumulative IPC: 2.241 (Simulation time: 00 hr 07 min 14 sec)
*** Reached end of trace: (0, "./tracers/456.hmmer-191B.champsimtrace.xz")
*** Reached end of trace: (0, "./tracers/456.hmmer-191B.champsimtrace.xz")
*** Reached end of trace: (0, "./tracers/456.hmmer-191B.champsimtrace.xz")
*** Reached end of trace: (0, "./tracers/456.hmmer-191B.champsimtrace.xz")
*** Reached end of trace: (0, "./tracers/456.hmmer-191B.champsimtrace.xz")
*** Reached end of trace: (0, "./tracers/456.hmmer-191B.champsimtrace.xz")
*** Reached end of trace: (0, "./tracers/456.hmmer-191B.champsimtrace.xz")
*** Reached end of trace: (0, "./tracers/456.hmmer-191B.champsimtrace.xz")
*** Reached end of trace: (0, "./tracers/456.hmmer-191B.champsimtrace.xz")
*** Reached end of trace: (0, "./tracers/456.hmmer-191B.champsimtrace.xz")
Heartbeat CPU 0 instructions: 90000016 cycles: 30375015 heartbeat IPC: 2.241 cumulative IPC: 2.241 (Simulation time: 00 hr 08 min 01 sec)
*** Reached end of trace: (0, "./tracers/456.hmmer-191B.champsimtrace.xz")
*** Reached end of trace: (0, "./tracers/456.hmmer-191B.champsimtrace.xz")
*** Reached end of trace: (0, "./tracers/456.hmmer-191B.champsimtrace.xz")
*** Reached end of trace: (0, "./tracers/456.hmmer-191B.champsimtrace.xz")
*** Reached end of trace: (0, "./tracers/456.hmmer-191B.champsimtrace.xz")
*** Reached end of trace: (0, "./tracers/456.hmmer-191B.champsimtrace.xz")
*** Reached end of trace: (0, "./tracers/456.hmmer-191B.champsimtrace.xz")
*** Reached end of trace: (0, "./tracers/456.hmmer-191B.champsimtrace.xz")
*** Reached end of trace: (0, "./tracers/456.hmmer-191B.champsimtrace.xz")
*** Reached end of trace: (0, "./tracers/456.hmmer-191B.champsimtrace.xz")
*** Reached end of trace: (0, "./tracers/456.hmmer-191B.champsimtrace.xz")
Heartbeat CPU 0 instructions: 100000016 cycles: 34836587 heartbeat IPC: 2.241 cumulative IPC: 2.241 (Simulation time: 00 hr 09 min 02 sec)
*** Reached end of trace: (0, "./tracers/456.hmmer-191B.champsimtrace.xz")
*** Reached end of trace: (0, "./tracers/456.hmmer-191B.champsimtrace.xz")
*** Reached end of trace: (0, "./tracers/456.hmmer-191B.champsimtrace.xz")
*** Reached end of trace: (0, "./tracers/456.hmmer-191B.champsimtrace.xz")
*** Reached end of trace: (0, "./tracers/456.hmmer-191B.champsimtrace.xz")
*** Reached end of trace: (0, "./tracers/456.hmmer-191B.champsimtrace.xz")
*** Reached end of trace: (0, "./tracers/456.hmmer-191B.champsimtrace.xz")
*** Reached end of trace: (0, "./tracers/456.hmmer-191B.champsimtrace.xz")
*** Reached end of trace: (0, "./tracers/456.hmmer-191B.champsimtrace.xz")
*** Reached end of trace: (0, "./tracers/456.hmmer-191B.champsimtrace.xz")
*** Reached end of trace: (0, "./tracers/456.hmmer-191B.champsimtrace.xz")
Heartbeat CPU 0 instructions: 110000016 cycles: 39298395 heartbeat IPC: 2.241 cumulative IPC: 2.241 (Simulation time: 00 hr 10 min 17 sec)
*** Reached end of trace: (0, "./tracers/456.hmmer-191B.champsimtrace.xz")
*** Reached end of trace: (0, "./tracers/456.hmmer-191B.champsimtrace.xz")
*** Reached end of trace: (0, "./tracers/456.hmmer-191B.champsimtrace.xz")
*** Reached end of trace: (0, "./tracers/456.hmmer-191B.champsimtrace.xz")
*** Reached end of trace: (0, "./tracers/456.hmmer-191B.champsimtrace.xz")
*** Reached end of trace: (0, "./tracers/456.hmmer-191B.champsimtrace.xz")
*** Reached end of trace: (0, "./tracers/456.hmmer-191B.champsimtrace.xz")
*** Reached end of trace: (0, "./tracers/456.hmmer-191B.champsimtrace.xz")
*** Reached end of trace: (0, "./tracers/456.hmmer-191B.champsimtrace.xz")
*** Reached end of trace: (0, "./tracers/456.hmmer-191B.champsimtrace.xz")
*** Reached end of trace: (0, "./tracers/456.hmmer-191B.champsimtrace.xz")
Heartbeat CPU 0 instructions: 120000017 cycles: 43760923 heartbeat IPC: 2.241 cumulative IPC: 2.241 (Simulation time: 00 hr 11 min 31 sec)
*** Reached end of trace: (0, "./tracers/456.hmmer-191B.champsimtrace.xz")
*** Reached end of trace: (0, "./tracers/456.hmmer-191B.champsimtrace.xz")
*** Reached end of trace: (0, "./tracers/456.hmmer-191B.champsimtrace.xz")
*** Reached end of trace: (0, "./tracers/456.hmmer-191B.champsimtrace.xz")
*** Reached end of trace: (0, "./tracers/456.hmmer-191B.champsimtrace.xz")
*** Reached end of trace: (0, "./tracers/456.hmmer-191B.champsimtrace.xz")
*** Reached end of trace: (0, "./tracers/456.hmmer-191B.champsimtrace.xz")
*** Reached end of trace: (0, "./tracers/456.hmmer-191B.champsimtrace.xz")
*** Reached end of trace: (0, "./tracers/456.hmmer-191B.champsimtrace.xz")
*** Reached end of trace: (0, "./tracers/456.hmmer-191B.champsimtrace.xz")
*** Reached end of trace: (0, "./tracers/456.hmmer-191B.champsimtrace.xz")
Heartbeat CPU 0 instructions: 130000020 cycles: 48222792 heartbeat IPC: 2.241 cumulative IPC: 2.241 (Simulation time: 00 hr 12 min 41 sec)
*** Reached end of trace: (0, "./tracers/456.hmmer-191B.champsimtrace.xz")
*** Reached end of trace: (0, "./tracers/456.hmmer-191B.champsimtrace.xz")
*** Reached end of trace: (0, "./tracers/456.hmmer-191B.champsimtrace.xz")
*** Reached end of trace: (0, "./tracers/456.hmmer-191B.champsimtrace.xz")
*** Reached end of trace: (0, "./tracers/456.hmmer-191B.champsimtrace.xz")
*** Reached end of trace: (0, "./tracers/456.hmmer-191B.champsimtrace.xz")
*** Reached end of trace: (0, "./tracers/456.hmmer-191B.champsimtrace.xz")
*** Reached end of trace: (0, "./tracers/456.hmmer-191B.champsimtrace.xz")
*** Reached end of trace: (0, "./tracers/456.hmmer-191B.champsimtrace.xz")
*** Reached end of trace: (0, "./tracers/456.hmmer-191B.champsimtrace.xz")
Heartbeat CPU 0 instructions: 140000021 cycles: 52684863 heartbeat IPC: 2.241 cumulative IPC: 2.241 (Simulation time: 00 hr 13 min 55 sec)
*** Reached end of trace: (0, "./tracers/456.hmmer-191B.champsimtrace.xz")
*** Reached end of trace: (0, "./tracers/456.hmmer-191B.champsimtrace.xz")
*** Reached end of trace: (0, "./tracers/456.hmmer-191B.champsimtrace.xz")
*** Reached end of trace: (0, "./tracers/456.hmmer-191B.champsimtrace.xz")
*** Reached end of trace: (0, "./tracers/456.hmmer-191B.champsimtrace.xz")
*** Reached end of trace: (0, "./tracers/456.hmmer-191B.champsimtrace.xz")
*** Reached end of trace: (0, "./tracers/456.hmmer-191B.champsimtrace.xz")
*** Reached end of trace: (0, "./tracers/456.hmmer-191B.champsimtrace.xz")
*** Reached end of trace: (0, "./tracers/456.hmmer-191B.champsimtrace.xz")
*** Reached end of trace: (0, "./tracers/456.hmmer-191B.champsimtrace.xz")
*** Reached end of trace: (0, "./tracers/456.hmmer-191B.champsimtrace.xz")
Simulation finished CPU 0 instructions: 100000002 cycles: 44620150 cumulative IPC: 2.241 (Simulation time: 00 hr 15 min 09 sec)
Simulation complete CPU 0 instructions: 100000002 cycles: 44620150 cumulative IPC: 2.241 (Simulation time: 00 hr 15 min 09 sec)

ChampSim completed all CPUs

=== Simulation ===
CPU 0 runs ./tracers/456.hmmer-191B.champsimtrace.xz

Region of Interest Statistics

CPU 0 cumulative IPC: 2.241 instructions: 100000002 cycles: 44620150
CPU 0 Branch Prediction Accuracy: 99.58% MPKI: 0.1799 Average ROB Occupancy at Mispredict: 145.3
Branch type MPKI
BRANCH_DIRECT_JUMP: 0
BRANCH_INDIRECT: 0
BRANCH_CONDITIONAL: 0.1799
BRANCH_DIRECT_CALL: 0
BRANCH_INDIRECT_CALL: 0
BRANCH_RETURN: 0

cpu0->cpu0_STLB TOTAL        ACCESS:       1943 HIT:       1943 MISS:          0 MSHR_MERGE:          0
cpu0->cpu0_STLB LOAD         ACCESS:       1943 HIT:       1943 MISS:          0 MSHR_MERGE:          0
cpu0->cpu0_STLB RFO          ACCESS:          0 HIT:          0 MISS:          0 MSHR_MERGE:          0
cpu0->cpu0_STLB PREFETCH     ACCESS:          0 HIT:          0 MISS:          0 MSHR_MERGE:          0
cpu0->cpu0_STLB WRITE        ACCESS:          0 HIT:          0 MISS:          0 MSHR_MERGE:          0
cpu0->cpu0_STLB TRANSLATION  ACCESS:          0 HIT:          0 MISS:          0 MSHR_MERGE:          0
cpu0->cpu0_STLB PREFETCH REQUESTED:          0 ISSUED:          0 USEFUL:          0 USELESS:          0
cpu0->cpu0_STLB AVERAGE MISS LATENCY: - cycles
cpu0->cpu0_L2C TOTAL        ACCESS:     680225 HIT:     680225 MISS:          0 MSHR_MERGE:          0
cpu0->cpu0_L2C LOAD         ACCESS:     146670 HIT:     146670 MISS:          0 MSHR_MERGE:          0
cpu0->cpu0_L2C RFO          ACCESS:     266676 HIT:     266676 MISS:          0 MSHR_MERGE:          0
cpu0->cpu0_L2C PREFETCH     ACCESS:          0 HIT:          0 MISS:          0 MSHR_MERGE:          0
cpu0->cpu0_L2C WRITE        ACCESS:     266879 HIT:     266879 MISS:          0 MSHR_MERGE:          0
cpu0->cpu0_L2C TRANSLATION  ACCESS:          0 HIT:          0 MISS:          0 MSHR_MERGE:          0
cpu0->cpu0_L2C PREFETCH REQUESTED:          0 ISSUED:          0 USEFUL:          0 USELESS:          0
cpu0->cpu0_L2C AVERAGE MISS LATENCY: - cycles
cpu0->cpu0_L1I TOTAL        ACCESS:   18499028 HIT:   18499028 MISS:          0 MSHR_MERGE:          0
cpu0->cpu0_L1I LOAD         ACCESS:   18499028 HIT:   18499028 MISS:          0 MSHR_MERGE:          0
cpu0->cpu0_L1I RFO          ACCESS:          0 HIT:          0 MISS:          0 MSHR_MERGE:          0
cpu0->cpu0_L1I PREFETCH     ACCESS:          0 HIT:          0 MISS:          0 MSHR_MERGE:          0
cpu0->cpu0_L1I WRITE        ACCESS:          0 HIT:          0 MISS:          0 MSHR_MERGE:          0
cpu0->cpu0_L1I TRANSLATION  ACCESS:          0 HIT:          0 MISS:          0 MSHR_MERGE:          0
cpu0->cpu0_L1I PREFETCH REQUESTED:          0 ISSUED:          0 USEFUL:          0 USELESS:          0
cpu0->cpu0_L1I AVERAGE MISS LATENCY: - cycles
cpu0->cpu0_L1D TOTAL        ACCESS:   40945756 HIT:   40123784 MISS:     821972 MSHR_MERGE:     408626
cpu0->cpu0_L1D LOAD         ACCESS:   29283379 HIT:   29106096 MISS:     177283 MSHR_MERGE:      30613
cpu0->cpu0_L1D RFO          ACCESS:          0 HIT:          0 MISS:          0 MSHR_MERGE:          0
cpu0->cpu0_L1D PREFETCH     ACCESS:          0 HIT:          0 MISS:          0 MSHR_MERGE:          0
cpu0->cpu0_L1D WRITE        ACCESS:   11662377 HIT:   11017688 MISS:     644689 MSHR_MERGE:     378013
cpu0->cpu0_L1D TRANSLATION  ACCESS:          0 HIT:          0 MISS:          0 MSHR_MERGE:          0
cpu0->cpu0_L1D PREFETCH REQUESTED:          0 ISSUED:          0 USEFUL:          0 USELESS:          0
cpu0->cpu0_L1D AVERAGE MISS LATENCY: 8.028 cycles
cpu0->cpu0_ITLB TOTAL        ACCESS:   16378165 HIT:   16378165 MISS:          0 MSHR_MERGE:          0
cpu0->cpu0_ITLB LOAD         ACCESS:   16378165 HIT:   16378165 MISS:          0 MSHR_MERGE:          0
cpu0->cpu0_ITLB RFO          ACCESS:          0 HIT:          0 MISS:          0 MSHR_MERGE:          0
cpu0->cpu0_ITLB PREFETCH     ACCESS:          0 HIT:          0 MISS:          0 MSHR_MERGE:          0
cpu0->cpu0_ITLB WRITE        ACCESS:          0 HIT:          0 MISS:          0 MSHR_MERGE:          0
cpu0->cpu0_ITLB TRANSLATION  ACCESS:          0 HIT:          0 MISS:          0 MSHR_MERGE:          0
cpu0->cpu0_ITLB PREFETCH REQUESTED:          0 ISSUED:          0 USEFUL:          0 USELESS:          0
cpu0->cpu0_ITLB AVERAGE MISS LATENCY: - cycles
cpu0->cpu0_DTLB TOTAL        ACCESS:   39220741 HIT:   39217224 MISS:       3517 MSHR_MERGE:       1574
cpu0->cpu0_DTLB LOAD         ACCESS:   39220741 HIT:   39217224 MISS:       3517 MSHR_MERGE:       1574
cpu0->cpu0_DTLB RFO          ACCESS:          0 HIT:          0 MISS:          0 MSHR_MERGE:          0
cpu0->cpu0_DTLB PREFETCH     ACCESS:          0 HIT:          0 MISS:          0 MSHR_MERGE:          0
cpu0->cpu0_DTLB WRITE        ACCESS:          0 HIT:          0 MISS:          0 MSHR_MERGE:          0
cpu0->cpu0_DTLB TRANSLATION  ACCESS:          0 HIT:          0 MISS:          0 MSHR_MERGE:          0
cpu0->cpu0_DTLB PREFETCH REQUESTED:          0 ISSUED:          0 USEFUL:          0 USELESS:          0
cpu0->cpu0_DTLB AVERAGE MISS LATENCY: 5.002 cycles

DRAM Statistics

Channel 0 RQ ROW_BUFFER_HIT:          0
  ROW_BUFFER_MISS:          0
  AVG DBUS CONGESTED CYCLE: -
Channel 0 WQ ROW_BUFFER_HIT:          0
  ROW_BUFFER_MISS:          0
  FULL:          0
Channel 0 REFRESHES ISSUED:       3719
