[VMEM] WARNING: physical memory size is smaller than virtual memory size.

*** ChampSim Multicore Out-of-Order Simulator ***
Warmup Instructions: 50000000
Simulation Instructions: 100000000
Number of CPUs: 1
Page size: 4096

Off-chip DRAM Size: 16 GiB Channels: 1 Width: 64-bit Data Rate: 3205 MT/s
Heartbeat CPU 0 instructions: 10000000 cycles: 2560195 heartbeat IPC: 3.906 cumulative IPC: 3.906 (Simulation time: 00 hr 00 min 45 sec)
Heartbeat CPU 0 instructions: 20000003 cycles: 5072664 heartbeat IPC: 3.98 cumulative IPC: 3.943 (Simulation time: 00 hr 01 min 30 sec)
Heartbeat CPU 0 instructions: 30000003 cycles: 7589866 heartbeat IPC: 3.973 cumulative IPC: 3.953 (Simulation time: 00 hr 02 min 16 sec)
Heartbeat CPU 0 instructions: 40000006 cycles: 10101895 heartbeat IPC: 3.981 cumulative IPC: 3.96 (Simulation time: 00 hr 03 min 01 sec)
Warmup finished CPU 0 instructions: 50000000 cycles: 12616184 cumulative IPC: 3.963 (Simulation time: 00 hr 03 min 46 sec)
Warmup complete CPU 0 instructions: 50000000 cycles: 12616184 cumulative IPC: 3.963 (Simulation time: 00 hr 03 min 46 sec)
Heartbeat CPU 0 instructions: 50000008 cycles: 12616186 heartbeat IPC: 3.977 cumulative IPC: 4 (Simulation time: 00 hr 03 min 46 sec)
Heartbeat CPU 0 instructions: 60000008 cycles: 16906041 heartbeat IPC: 2.331 cumulative IPC: 2.331 (Simulation time: 00 hr 04 min 42 sec)
Heartbeat CPU 0 instructions: 70000010 cycles: 21246055 heartbeat IPC: 2.304 cumulative IPC: 2.318 (Simulation time: 00 hr 05 min 38 sec)
Heartbeat CPU 0 instructions: 80000011 cycles: 25541358 heartbeat IPC: 2.328 cumulative IPC: 2.321 (Simulation time: 00 hr 06 min 33 sec)
Heartbeat CPU 0 instructions: 90000012 cycles: 29849373 heartbeat IPC: 2.321 cumulative IPC: 2.321 (Simulation time: 00 hr 07 min 29 sec)
Heartbeat CPU 0 instructions: 100000012 cycles: 34066729 heartbeat IPC: 2.371 cumulative IPC: 2.331 (Simulation time: 00 hr 08 min 25 sec)
Heartbeat CPU 0 instructions: 110000015 cycles: 38182658 heartbeat IPC: 2.43 cumulative IPC: 2.347 (Simulation time: 00 hr 09 min 19 sec)
Heartbeat CPU 0 instructions: 120000016 cycles: 50770636 heartbeat IPC: 0.7944 cumulative IPC: 1.835 (Simulation time: 00 hr 11 min 33 sec)
Heartbeat CPU 0 instructions: 130000017 cycles: 54780654 heartbeat IPC: 2.494 cumulative IPC: 1.897 (Simulation time: 00 hr 12 min 31 sec)
Heartbeat CPU 0 instructions: 140000021 cycles: 62000760 heartbeat IPC: 1.385 cumulative IPC: 1.822 (Simulation time: 00 hr 13 min 45 sec)
Simulation finished CPU 0 instructions: 100000000 cycles: 54253112 cumulative IPC: 1.843 (Simulation time: 00 hr 14 min 38 sec)
Simulation complete CPU 0 instructions: 100000000 cycles: 54253112 cumulative IPC: 1.843 (Simulation time: 00 hr 14 min 38 sec)

ChampSim completed all CPUs

=== Simulation ===
CPU 0 runs /home/zevs_gromovergec/Programming/Interview/Sber/Programming_modulating/ChampSim/tracers/625.x264_s-39B.champsimtrace.xz

Region of Interest Statistics

CPU 0 cumulative IPC: 1.843 instructions: 100000000 cycles: 54253112
CPU 0 Branch Prediction Accuracy: 91.33% MPKI: 3.491 Average ROB Occupancy at Mispredict: 78.06
Branch type MPKI
BRANCH_DIRECT_JUMP: 0.0026
BRANCH_INDIRECT: 0.00318
BRANCH_CONDITIONAL: 3.316
BRANCH_DIRECT_CALL: 0.0024
BRANCH_INDIRECT_CALL: 0.06673
BRANCH_RETURN: 0.1004

cpu0->cpu0_STLB TOTAL        ACCESS:      92248 HIT:      89770 MISS:       2478 MSHR_MERGE:          0
cpu0->cpu0_STLB LOAD         ACCESS:      92248 HIT:      89770 MISS:       2478 MSHR_MERGE:          0
cpu0->cpu0_STLB RFO          ACCESS:          0 HIT:          0 MISS:          0 MSHR_MERGE:          0
cpu0->cpu0_STLB PREFETCH     ACCESS:          0 HIT:          0 MISS:          0 MSHR_MERGE:          0
cpu0->cpu0_STLB WRITE        ACCESS:          0 HIT:          0 MISS:          0 MSHR_MERGE:          0
cpu0->cpu0_STLB TRANSLATION  ACCESS:          0 HIT:          0 MISS:          0 MSHR_MERGE:          0
cpu0->cpu0_STLB PREFETCH REQUESTED:          0 ISSUED:          0 USEFUL:          0 USELESS:          0
cpu0->cpu0_STLB AVERAGE MISS LATENCY: 741.7 cycles
cpu0->cpu0_L2C TOTAL        ACCESS:     847573 HIT:     510630 MISS:     336943 MSHR_MERGE:          0
cpu0->cpu0_L2C LOAD         ACCESS:     643114 HIT:     465367 MISS:     177747 MSHR_MERGE:          0
cpu0->cpu0_L2C RFO          ACCESS:      85991 HIT:      13805 MISS:      72186 MSHR_MERGE:          0
cpu0->cpu0_L2C PREFETCH     ACCESS:          0 HIT:          0 MISS:          0 MSHR_MERGE:          0
cpu0->cpu0_L2C WRITE        ACCESS:     114943 HIT:      31455 MISS:      83488 MSHR_MERGE:          0
cpu0->cpu0_L2C TRANSLATION  ACCESS:       3525 HIT:          3 MISS:       3522 MSHR_MERGE:          0
cpu0->cpu0_L2C PREFETCH REQUESTED:          0 ISSUED:          0 USEFUL:          0 USELESS:          0
cpu0->cpu0_L2C AVERAGE MISS LATENCY: 140.1 cycles
cpu0->cpu0_L1I TOTAL        ACCESS:   11186396 HIT:   10447422 MISS:     738974 MSHR_MERGE:     293179
cpu0->cpu0_L1I LOAD         ACCESS:   11186396 HIT:   10447422 MISS:     738974 MSHR_MERGE:     293179
cpu0->cpu0_L1I RFO          ACCESS:          0 HIT:          0 MISS:          0 MSHR_MERGE:          0
cpu0->cpu0_L1I PREFETCH     ACCESS:          0 HIT:          0 MISS:          0 MSHR_MERGE:          0
cpu0->cpu0_L1I WRITE        ACCESS:          0 HIT:          0 MISS:          0 MSHR_MERGE:          0
cpu0->cpu0_L1I TRANSLATION  ACCESS:          0 HIT:          0 MISS:          0 MSHR_MERGE:          0
cpu0->cpu0_L1I PREFETCH REQUESTED:          0 ISSUED:          0 USEFUL:          0 USELESS:          0
cpu0->cpu0_L1I AVERAGE MISS LATENCY: 7.858 cycles
cpu0->cpu0_L1D TOTAL        ACCESS:   21704289 HIT:   20596278 MISS:    1108011 MSHR_MERGE:     821173
cpu0->cpu0_L1D LOAD         ACCESS:   15030699 HIT:   14587288 MISS:     443411 MSHR_MERGE:     246092
cpu0->cpu0_L1D RFO          ACCESS:          0 HIT:          0 MISS:          0 MSHR_MERGE:          0
cpu0->cpu0_L1D PREFETCH     ACCESS:          0 HIT:          0 MISS:          0 MSHR_MERGE:          0
cpu0->cpu0_L1D WRITE        ACCESS:    6668615 HIT:    6007631 MISS:     660984 MSHR_MERGE:     574990
cpu0->cpu0_L1D TRANSLATION  ACCESS:       4975 HIT:       1359 MISS:       3616 MSHR_MERGE:         91
cpu0->cpu0_L1D PREFETCH REQUESTED:          0 ISSUED:          0 USEFUL:          0 USELESS:          0
cpu0->cpu0_L1D AVERAGE MISS LATENCY: 171.2 cycles
cpu0->cpu0_ITLB TOTAL        ACCESS:    9849923 HIT:    9846487 MISS:       3436 MSHR_MERGE:       2415
cpu0->cpu0_ITLB LOAD         ACCESS:    9849923 HIT:    9846487 MISS:       3436 MSHR_MERGE:       2415
cpu0->cpu0_ITLB RFO          ACCESS:          0 HIT:          0 MISS:          0 MSHR_MERGE:          0
cpu0->cpu0_ITLB PREFETCH     ACCESS:          0 HIT:          0 MISS:          0 MSHR_MERGE:          0
cpu0->cpu0_ITLB WRITE        ACCESS:          0 HIT:          0 MISS:          0 MSHR_MERGE:          0
cpu0->cpu0_ITLB TRANSLATION  ACCESS:          0 HIT:          0 MISS:          0 MSHR_MERGE:          0
cpu0->cpu0_ITLB PREFETCH REQUESTED:          0 ISSUED:          0 USEFUL:          0 USELESS:          0
cpu0->cpu0_ITLB AVERAGE MISS LATENCY: 56.11 cycles
cpu0->cpu0_DTLB TOTAL        ACCESS:   20556801 HIT:   20365672 MISS:     191129 MSHR_MERGE:      99902
cpu0->cpu0_DTLB LOAD         ACCESS:   20556801 HIT:   20365672 MISS:     191129 MSHR_MERGE:      99902
cpu0->cpu0_DTLB RFO          ACCESS:          0 HIT:          0 MISS:          0 MSHR_MERGE:          0
cpu0->cpu0_DTLB PREFETCH     ACCESS:          0 HIT:          0 MISS:          0 MSHR_MERGE:          0
cpu0->cpu0_DTLB WRITE        ACCESS:          0 HIT:          0 MISS:          0 MSHR_MERGE:          0
cpu0->cpu0_DTLB TRANSLATION  ACCESS:          0 HIT:          0 MISS:          0 MSHR_MERGE:          0
cpu0->cpu0_DTLB PREFETCH REQUESTED:          0 ISSUED:          0 USEFUL:          0 USELESS:          0
cpu0->cpu0_DTLB AVERAGE MISS LATENCY: 24.6 cycles
cpu0->LLC TOTAL        ACCESS:     349586 HIT:     162447 MISS:     187139 MSHR_MERGE:          0
cpu0->LLC LOAD         ACCESS:     177747 HIT:      65943 MISS:     111804 MSHR_MERGE:          0
cpu0->LLC RFO          ACCESS:      72186 HIT:       1630 MISS:      70556 MSHR_MERGE:          0
cpu0->LLC PREFETCH     ACCESS:          0 HIT:          0 MISS:          0 MSHR_MERGE:          0
cpu0->LLC WRITE        ACCESS:      96131 HIT:      94833 MISS:       1298 MSHR_MERGE:          0
cpu0->LLC TRANSLATION  ACCESS:       3522 HIT:         41 MISS:       3481 MSHR_MERGE:          0
cpu0->LLC PREFETCH REQUESTED:          0 ISSUED:          0 USEFUL:          0 USELESS:          0
cpu0->LLC AVERAGE MISS LATENCY: 229.2 cycles

DRAM Statistics

Channel 0 RQ ROW_BUFFER_HIT:       3435
  ROW_BUFFER_MISS:     182374
  AVG DBUS CONGESTED CYCLE: 11.07
Channel 0 WQ ROW_BUFFER_HIT:      23514
  ROW_BUFFER_MISS:      66537
  FULL:          0
Channel 0 REFRESHES ISSUED:       4521
