[VMEM] WARNING: physical memory size is smaller than virtual memory size.

*** ChampSim Multicore Out-of-Order Simulator ***
Warmup Instructions: 50000000
Simulation Instructions: 100000000
Number of CPUs: 1
Page size: 4096

Off-chip DRAM Size: 16 GiB Channels: 1 Width: 64-bit Data Rate: 3205 MT/s
Heartbeat CPU 0 instructions: 10000000 cycles: 2558349 heartbeat IPC: 3.909 cumulative IPC: 3.909 (Simulation time: 00 hr 00 min 36 sec)
Heartbeat CPU 0 instructions: 20000002 cycles: 5147774 heartbeat IPC: 3.862 cumulative IPC: 3.885 (Simulation time: 00 hr 01 min 13 sec)
Heartbeat CPU 0 instructions: 30000004 cycles: 7660880 heartbeat IPC: 3.979 cumulative IPC: 3.916 (Simulation time: 00 hr 01 min 50 sec)
Heartbeat CPU 0 instructions: 40000008 cycles: 10176175 heartbeat IPC: 3.976 cumulative IPC: 3.931 (Simulation time: 00 hr 02 min 41 sec)
Warmup finished CPU 0 instructions: 50000000 cycles: 12679922 cumulative IPC: 3.943 (Simulation time: 00 hr 03 min 35 sec)
Warmup complete CPU 0 instructions: 50000000 cycles: 12679922 cumulative IPC: 3.943 (Simulation time: 00 hr 03 min 35 sec)
Heartbeat CPU 0 instructions: 50000010 cycles: 12679924 heartbeat IPC: 3.994 cumulative IPC: 5 (Simulation time: 00 hr 03 min 35 sec)
Heartbeat CPU 0 instructions: 60000014 cycles: 17398910 heartbeat IPC: 2.119 cumulative IPC: 2.119 (Simulation time: 00 hr 04 min 53 sec)
Heartbeat CPU 0 instructions: 70000018 cycles: 22444207 heartbeat IPC: 1.982 cumulative IPC: 2.048 (Simulation time: 00 hr 06 min 13 sec)
Heartbeat CPU 0 instructions: 80000018 cycles: 27488869 heartbeat IPC: 1.982 cumulative IPC: 2.026 (Simulation time: 00 hr 07 min 34 sec)
Heartbeat CPU 0 instructions: 90000019 cycles: 32609264 heartbeat IPC: 1.953 cumulative IPC: 2.007 (Simulation time: 00 hr 08 min 57 sec)
Heartbeat CPU 0 instructions: 100000020 cycles: 37648856 heartbeat IPC: 1.984 cumulative IPC: 2.002 (Simulation time: 00 hr 10 min 20 sec)
Heartbeat CPU 0 instructions: 110000020 cycles: 42707360 heartbeat IPC: 1.977 cumulative IPC: 1.998 (Simulation time: 00 hr 11 min 43 sec)
Heartbeat CPU 0 instructions: 120000023 cycles: 47764890 heartbeat IPC: 1.977 cumulative IPC: 1.995 (Simulation time: 00 hr 13 min 05 sec)
Heartbeat CPU 0 instructions: 130000025 cycles: 52813679 heartbeat IPC: 1.981 cumulative IPC: 1.993 (Simulation time: 00 hr 14 min 25 sec)
Heartbeat CPU 0 instructions: 140000026 cycles: 57886013 heartbeat IPC: 1.971 cumulative IPC: 1.991 (Simulation time: 00 hr 15 min 46 sec)
Simulation finished CPU 0 instructions: 100000002 cycles: 50256602 cumulative IPC: 1.99 (Simulation time: 00 hr 17 min 08 sec)
Simulation complete CPU 0 instructions: 100000002 cycles: 50256602 cumulative IPC: 1.99 (Simulation time: 00 hr 17 min 08 sec)

ChampSim completed all CPUs

=== Simulation ===
CPU 0 runs /home/zevs_gromovergec/Programming/Interview/Sber/Programming_modulating/ChampSim/tracers/456.hmmer-327B.champsimtrace.xz

Region of Interest Statistics

CPU 0 cumulative IPC: 1.99 instructions: 100000002 cycles: 50256602
CPU 0 Branch Prediction Accuracy: 99.38% MPKI: 0.2744 Average ROB Occupancy at Mispredict: 106.2
Branch type MPKI
BRANCH_DIRECT_JUMP: 2e-05
BRANCH_INDIRECT: 0.00042
BRANCH_CONDITIONAL: 0.2738
BRANCH_DIRECT_CALL: 4e-05
BRANCH_INDIRECT_CALL: 0.0001
BRANCH_RETURN: 5e-05

cpu0->cpu0_STLB TOTAL        ACCESS:       6569 HIT:       6435 MISS:        134 MSHR_MERGE:          0
cpu0->cpu0_STLB LOAD         ACCESS:       6569 HIT:       6435 MISS:        134 MSHR_MERGE:          0
cpu0->cpu0_STLB RFO          ACCESS:          0 HIT:          0 MISS:          0 MSHR_MERGE:          0
cpu0->cpu0_STLB PREFETCH     ACCESS:          0 HIT:          0 MISS:          0 MSHR_MERGE:          0
cpu0->cpu0_STLB WRITE        ACCESS:          0 HIT:          0 MISS:          0 MSHR_MERGE:          0
cpu0->cpu0_STLB TRANSLATION  ACCESS:          0 HIT:          0 MISS:          0 MSHR_MERGE:          0
cpu0->cpu0_STLB PREFETCH REQUESTED:          0 ISSUED:          0 USEFUL:          0 USELESS:          0
cpu0->cpu0_STLB AVERAGE MISS LATENCY: 689.2 cycles
cpu0->cpu0_L2C TOTAL        ACCESS:     681265 HIT:     408393 MISS:     272872 MSHR_MERGE:          0
cpu0->cpu0_L2C LOAD         ACCESS:     147630 HIT:     136894 MISS:      10736 MSHR_MERGE:          0
cpu0->cpu0_L2C RFO          ACCESS:     266400 HIT:       4464 MISS:     261936 MSHR_MERGE:          0
cpu0->cpu0_L2C PREFETCH     ACCESS:          0 HIT:          0 MISS:          0 MSHR_MERGE:          0
cpu0->cpu0_L2C WRITE        ACCESS:     267065 HIT:     267027 MISS:         38 MSHR_MERGE:          0
cpu0->cpu0_L2C TRANSLATION  ACCESS:        170 HIT:          8 MISS:        162 MSHR_MERGE:          0
cpu0->cpu0_L2C PREFETCH REQUESTED:          0 ISSUED:          0 USEFUL:          0 USELESS:          0
cpu0->cpu0_L2C AVERAGE MISS LATENCY: 73.85 cycles
cpu0->cpu0_L1I TOTAL        ACCESS:   19705704 HIT:   19705699 MISS:          5 MSHR_MERGE:          0
cpu0->cpu0_L1I LOAD         ACCESS:   19705704 HIT:   19705699 MISS:          5 MSHR_MERGE:          0
cpu0->cpu0_L1I RFO          ACCESS:          0 HIT:          0 MISS:          0 MSHR_MERGE:          0
cpu0->cpu0_L1I PREFETCH     ACCESS:          0 HIT:          0 MISS:          0 MSHR_MERGE:          0
cpu0->cpu0_L1I WRITE        ACCESS:          0 HIT:          0 MISS:          0 MSHR_MERGE:          0
cpu0->cpu0_L1I TRANSLATION  ACCESS:          0 HIT:          0 MISS:          0 MSHR_MERGE:          0
cpu0->cpu0_L1I PREFETCH REQUESTED:          0 ISSUED:          0 USEFUL:          0 USELESS:          0
cpu0->cpu0_L1I AVERAGE MISS LATENCY: 216.4 cycles
cpu0->cpu0_L1D TOTAL        ACCESS:   44456466 HIT:   42049575 MISS:    2406891 MSHR_MERGE:    1992696
cpu0->cpu0_L1D LOAD         ACCESS:   31488869 HIT:   31335294 MISS:     153575 MSHR_MERGE:       5950
cpu0->cpu0_L1D RFO          ACCESS:          0 HIT:          0 MISS:          0 MSHR_MERGE:          0
cpu0->cpu0_L1D PREFETCH     ACCESS:          0 HIT:          0 MISS:          0 MSHR_MERGE:          0
cpu0->cpu0_L1D WRITE        ACCESS:   12967329 HIT:   10714183 MISS:    2253146 MSHR_MERGE:    1986746
cpu0->cpu0_L1D TRANSLATION  ACCESS:        268 HIT:         98 MISS:        170 MSHR_MERGE:          0
cpu0->cpu0_L1D PREFETCH REQUESTED:          0 ISSUED:          0 USEFUL:          0 USELESS:          0
cpu0->cpu0_L1D AVERAGE MISS LATENCY: 57.33 cycles
cpu0->cpu0_ITLB TOTAL        ACCESS:   18179567 HIT:   18179565 MISS:          2 MSHR_MERGE:          1
cpu0->cpu0_ITLB LOAD         ACCESS:   18179567 HIT:   18179565 MISS:          2 MSHR_MERGE:          1
cpu0->cpu0_ITLB RFO          ACCESS:          0 HIT:          0 MISS:          0 MSHR_MERGE:          0
cpu0->cpu0_ITLB PREFETCH     ACCESS:          0 HIT:          0 MISS:          0 MSHR_MERGE:          0
cpu0->cpu0_ITLB WRITE        ACCESS:          0 HIT:          0 MISS:          0 MSHR_MERGE:          0
cpu0->cpu0_ITLB TRANSLATION  ACCESS:          0 HIT:          0 MISS:          0 MSHR_MERGE:          0
cpu0->cpu0_ITLB PREFETCH REQUESTED:          0 ISSUED:          0 USEFUL:          0 USELESS:          0
cpu0->cpu0_ITLB AVERAGE MISS LATENCY: 750 cycles
cpu0->cpu0_DTLB TOTAL        ACCESS:   42334510 HIT:   42323051 MISS:      11459 MSHR_MERGE:       4891
cpu0->cpu0_DTLB LOAD         ACCESS:   42334510 HIT:   42323051 MISS:      11459 MSHR_MERGE:       4891
cpu0->cpu0_DTLB RFO          ACCESS:          0 HIT:          0 MISS:          0 MSHR_MERGE:          0
cpu0->cpu0_DTLB PREFETCH     ACCESS:          0 HIT:          0 MISS:          0 MSHR_MERGE:          0
cpu0->cpu0_DTLB WRITE        ACCESS:          0 HIT:          0 MISS:          0 MSHR_MERGE:          0
cpu0->cpu0_DTLB TRANSLATION  ACCESS:          0 HIT:          0 MISS:          0 MSHR_MERGE:          0
cpu0->cpu0_DTLB PREFETCH REQUESTED:          0 ISSUED:          0 USEFUL:          0 USELESS:          0
cpu0->cpu0_DTLB AVERAGE MISS LATENCY: 18.98 cycles
cpu0->LLC TOTAL        ACCESS:     536602 HIT:     451478 MISS:      85124 MSHR_MERGE:          0
cpu0->LLC LOAD         ACCESS:      10736 HIT:       9174 MISS:       1562 MSHR_MERGE:          0
cpu0->LLC RFO          ACCESS:     261934 HIT:     178561 MISS:      83373 MSHR_MERGE:          0
cpu0->LLC PREFETCH     ACCESS:          0 HIT:          0 MISS:          0 MSHR_MERGE:          0
cpu0->LLC WRITE        ACCESS:     263770 HIT:     263740 MISS:         30 MSHR_MERGE:          0
cpu0->LLC TRANSLATION  ACCESS:        162 HIT:          3 MISS:        159 MSHR_MERGE:          0
cpu0->LLC PREFETCH REQUESTED:          0 ISSUED:          0 USEFUL:          0 USELESS:          0
cpu0->LLC AVERAGE MISS LATENCY: 187.5 cycles

DRAM Statistics

Channel 0 RQ ROW_BUFFER_HIT:         22
  ROW_BUFFER_MISS:      85065
  AVG DBUS CONGESTED CYCLE: 7.312
Channel 0 WQ ROW_BUFFER_HIT:       1585
  ROW_BUFFER_MISS:      80976
  FULL:          0
Channel 0 REFRESHES ISSUED:       4188
