[VMEM] WARNING: physical memory size is smaller than virtual memory size.

*** ChampSim Multicore Out-of-Order Simulator ***
Warmup Instructions: 50000000
Simulation Instructions: 100000000
Number of CPUs: 1
Page size: 4096

Initialize SIGNATURE TABLE
ST_SET: 1
ST_WAY: 256
ST_TAG_BIT: 16

Initialize PATTERN TABLE
PT_SET: 512
PT_WAY: 4
SIG_DELTA_BIT: 7
C_SIG_BIT: 4
C_DELTA_BIT: 4

Initialize PREFETCH FILTER
FILTER_SET: 1024
Off-chip DRAM Size: 16 GiB Channels: 1 Width: 64-bit Data Rate: 3205 MT/s
Heartbeat CPU 0 instructions: 10000001 cycles: 2675763 heartbeat IPC: 3.737 cumulative IPC: 3.737 (Simulation time: 00 hr 00 min 49 sec)
Heartbeat CPU 0 instructions: 20000002 cycles: 5356384 heartbeat IPC: 3.73 cumulative IPC: 3.734 (Simulation time: 00 hr 01 min 38 sec)
Heartbeat CPU 0 instructions: 30000004 cycles: 8082203 heartbeat IPC: 3.669 cumulative IPC: 3.712 (Simulation time: 00 hr 02 min 28 sec)
Heartbeat CPU 0 instructions: 40000007 cycles: 10803810 heartbeat IPC: 3.674 cumulative IPC: 3.702 (Simulation time: 00 hr 03 min 18 sec)
Warmup finished CPU 0 instructions: 50000001 cycles: 13518758 cumulative IPC: 3.699 (Simulation time: 00 hr 04 min 08 sec)
Warmup complete CPU 0 instructions: 50000001 cycles: 13518758 cumulative IPC: 3.699 (Simulation time: 00 hr 04 min 08 sec)
Heartbeat CPU 0 instructions: 50000008 cycles: 13518760 heartbeat IPC: 3.683 cumulative IPC: 3.5 (Simulation time: 00 hr 04 min 08 sec)
Heartbeat CPU 0 instructions: 60000008 cycles: 18221990 heartbeat IPC: 2.126 cumulative IPC: 2.126 (Simulation time: 00 hr 05 min 18 sec)
Heartbeat CPU 0 instructions: 70000011 cycles: 22933125 heartbeat IPC: 2.123 cumulative IPC: 2.124 (Simulation time: 00 hr 06 min 12 sec)
Heartbeat CPU 0 instructions: 80000012 cycles: 27657103 heartbeat IPC: 2.117 cumulative IPC: 2.122 (Simulation time: 00 hr 07 min 05 sec)
Heartbeat CPU 0 instructions: 90000012 cycles: 32965121 heartbeat IPC: 1.884 cumulative IPC: 2.057 (Simulation time: 00 hr 08 min 09 sec)
Heartbeat CPU 0 instructions: 100000015 cycles: 38289622 heartbeat IPC: 1.878 cumulative IPC: 2.019 (Simulation time: 00 hr 09 min 24 sec)
Heartbeat CPU 0 instructions: 110000017 cycles: 43668488 heartbeat IPC: 1.859 cumulative IPC: 1.99 (Simulation time: 00 hr 10 min 50 sec)
Heartbeat CPU 0 instructions: 120000019 cycles: 49244737 heartbeat IPC: 1.793 cumulative IPC: 1.959 (Simulation time: 00 hr 12 min 16 sec)
Heartbeat CPU 0 instructions: 130000021 cycles: 54799228 heartbeat IPC: 1.8 cumulative IPC: 1.938 (Simulation time: 00 hr 13 min 42 sec)
Heartbeat CPU 0 instructions: 140000023 cycles: 60361159 heartbeat IPC: 1.798 cumulative IPC: 1.921 (Simulation time: 00 hr 15 min 08 sec)
Simulation finished CPU 0 instructions: 100000000 cycles: 52680236 cumulative IPC: 1.898 (Simulation time: 00 hr 16 min 35 sec)
Simulation complete CPU 0 instructions: 100000000 cycles: 52680236 cumulative IPC: 1.898 (Simulation time: 00 hr 16 min 35 sec)

ChampSim completed all CPUs

=== Simulation ===
CPU 0 runs /home/zevs_gromovergec/Programming/Interview/Sber/Programming_modulating/ChampSim/tracers/437.leslie3d-273B.champsimtrace.xz

Region of Interest Statistics

CPU 0 cumulative IPC: 1.898 instructions: 100000000 cycles: 52680236
CPU 0 Branch Prediction Accuracy: 99.19% MPKI: 0.1548 Average ROB Occupancy at Mispredict: 335.9
Branch type MPKI
BRANCH_DIRECT_JUMP: 6e-05
BRANCH_INDIRECT: 0
BRANCH_CONDITIONAL: 0.1547
BRANCH_DIRECT_CALL: 0
BRANCH_INDIRECT_CALL: 0
BRANCH_RETURN: 1e-05

cpu0->cpu0_STLB TOTAL        ACCESS:      14231 HIT:        502 MISS:      13729 MSHR_MERGE:          0
cpu0->cpu0_STLB LOAD         ACCESS:      14231 HIT:        502 MISS:      13729 MSHR_MERGE:          0
cpu0->cpu0_STLB RFO          ACCESS:          0 HIT:          0 MISS:          0 MSHR_MERGE:          0
cpu0->cpu0_STLB PREFETCH     ACCESS:          0 HIT:          0 MISS:          0 MSHR_MERGE:          0
cpu0->cpu0_STLB WRITE        ACCESS:          0 HIT:          0 MISS:          0 MSHR_MERGE:          0
cpu0->cpu0_STLB TRANSLATION  ACCESS:          0 HIT:          0 MISS:          0 MSHR_MERGE:          0
cpu0->cpu0_STLB PREFETCH REQUESTED:          0 ISSUED:          0 USEFUL:          0 USELESS:          0
cpu0->cpu0_STLB AVERAGE MISS LATENCY: 500.3 cycles
cpu0->cpu0_L2C TOTAL        ACCESS:    5773676 HIT:     380483 MISS:    5393193 MSHR_MERGE:       6736
cpu0->cpu0_L2C LOAD         ACCESS:     606151 HIT:     357065 MISS:     249086 MSHR_MERGE:       6160
cpu0->cpu0_L2C RFO          ACCESS:     268538 HIT:       3662 MISS:     264876 MSHR_MERGE:          0
cpu0->cpu0_L2C PREFETCH     ACCESS:    4611208 HIT:       6952 MISS:    4604256 MSHR_MERGE:        576
cpu0->cpu0_L2C WRITE        ACCESS:     271821 HIT:      12804 MISS:     259017 MSHR_MERGE:          0
cpu0->cpu0_L2C TRANSLATION  ACCESS:      15958 HIT:          0 MISS:      15958 MSHR_MERGE:          0
cpu0->cpu0_L2C PREFETCH REQUESTED:    6193317 ISSUED:    4611208 USEFUL:     358175 USELESS:      75788
cpu0->cpu0_L2C AVERAGE MISS LATENCY: 105.9 cycles
cpu0->cpu0_L1I TOTAL        ACCESS:   21332666 HIT:   21332510 MISS:        156 MSHR_MERGE:         68
cpu0->cpu0_L1I LOAD         ACCESS:   21332666 HIT:   21332510 MISS:        156 MSHR_MERGE:         68
cpu0->cpu0_L1I RFO          ACCESS:          0 HIT:          0 MISS:          0 MSHR_MERGE:          0
cpu0->cpu0_L1I PREFETCH     ACCESS:          0 HIT:          0 MISS:          0 MSHR_MERGE:          0
cpu0->cpu0_L1I WRITE        ACCESS:          0 HIT:          0 MISS:          0 MSHR_MERGE:          0
cpu0->cpu0_L1I TRANSLATION  ACCESS:          0 HIT:          0 MISS:          0 MSHR_MERGE:          0
cpu0->cpu0_L1I PREFETCH REQUESTED:          0 ISSUED:          0 USEFUL:          0 USELESS:          0
cpu0->cpu0_L1I AVERAGE MISS LATENCY: 213.4 cycles
cpu0->cpu0_L1D TOTAL        ACCESS:   35957006 HIT:   33291627 MISS:    2665379 MSHR_MERGE:    1774820
cpu0->cpu0_L1D LOAD         ACCESS:   33713186 HIT:   32918100 MISS:     795086 MSHR_MERGE:     189023
cpu0->cpu0_L1D RFO          ACCESS:          0 HIT:          0 MISS:          0 MSHR_MERGE:          0
cpu0->cpu0_L1D PREFETCH     ACCESS:          0 HIT:          0 MISS:          0 MSHR_MERGE:          0
cpu0->cpu0_L1D WRITE        ACCESS:    2216348 HIT:     362019 MISS:    1854329 MSHR_MERGE:    1585791
cpu0->cpu0_L1D TRANSLATION  ACCESS:      27472 HIT:      11508 MISS:      15964 MSHR_MERGE:          6
cpu0->cpu0_L1D PREFETCH REQUESTED:          0 ISSUED:          0 USEFUL:          0 USELESS:          0
cpu0->cpu0_L1D AVERAGE MISS LATENCY: 101.2 cycles
cpu0->cpu0_ITLB TOTAL        ACCESS:   17784415 HIT:   17784408 MISS:          7 MSHR_MERGE:          5
cpu0->cpu0_ITLB LOAD         ACCESS:   17784415 HIT:   17784408 MISS:          7 MSHR_MERGE:          5
cpu0->cpu0_ITLB RFO          ACCESS:          0 HIT:          0 MISS:          0 MSHR_MERGE:          0
cpu0->cpu0_ITLB PREFETCH     ACCESS:          0 HIT:          0 MISS:          0 MSHR_MERGE:          0
cpu0->cpu0_ITLB WRITE        ACCESS:          0 HIT:          0 MISS:          0 MSHR_MERGE:          0
cpu0->cpu0_ITLB TRANSLATION  ACCESS:          0 HIT:          0 MISS:          0 MSHR_MERGE:          0
cpu0->cpu0_ITLB PREFETCH REQUESTED:          0 ISSUED:          0 USEFUL:          0 USELESS:          0
cpu0->cpu0_ITLB AVERAGE MISS LATENCY: 1030 cycles
cpu0->cpu0_DTLB TOTAL        ACCESS:   34605402 HIT:   34530512 MISS:      74890 MSHR_MERGE:      60661
cpu0->cpu0_DTLB LOAD         ACCESS:   34605402 HIT:   34530512 MISS:      74890 MSHR_MERGE:      60661
cpu0->cpu0_DTLB RFO          ACCESS:          0 HIT:          0 MISS:          0 MSHR_MERGE:          0
cpu0->cpu0_DTLB PREFETCH     ACCESS:          0 HIT:          0 MISS:          0 MSHR_MERGE:          0
cpu0->cpu0_DTLB WRITE        ACCESS:          0 HIT:          0 MISS:          0 MSHR_MERGE:          0
cpu0->cpu0_DTLB TRANSLATION  ACCESS:          0 HIT:          0 MISS:          0 MSHR_MERGE:          0
cpu0->cpu0_DTLB PREFETCH REQUESTED:          0 ISSUED:          0 USEFUL:          0 USELESS:          0
cpu0->cpu0_DTLB AVERAGE MISS LATENCY: 488.5 cycles
cpu0->LLC TOTAL        ACCESS:    5361381 HIT:    3444953 MISS:    1916428 MSHR_MERGE:    1041076
cpu0->LLC LOAD         ACCESS:     242926 HIT:     228101 MISS:      14825 MSHR_MERGE:       2181
cpu0->LLC RFO          ACCESS:     264876 HIT:        446 MISS:     264430 MSHR_MERGE:          1
cpu0->LLC PREFETCH     ACCESS:    4571610 HIT:    2950212 MISS:    1621398 MSHR_MERGE:    1038894
cpu0->LLC WRITE        ACCESS:     266011 HIT:     266008 MISS:          3 MSHR_MERGE:          0
cpu0->LLC TRANSLATION  ACCESS:      15958 HIT:        186 MISS:      15772 MSHR_MERGE:          0
cpu0->LLC PREFETCH REQUESTED:          0 ISSUED:          0 USEFUL:          0 USELESS:          0
cpu0->LLC AVERAGE MISS LATENCY: 249.5 cycles

DRAM Statistics

Channel 0 RQ ROW_BUFFER_HIT:       5321
  ROW_BUFFER_MISS:     870026
  AVG DBUS CONGESTED CYCLE: 7.9
Channel 0 WQ ROW_BUFFER_HIT:      58351
  ROW_BUFFER_MISS:     217342
  FULL:          0
Channel 0 REFRESHES ISSUED:       4390
