[VMEM] WARNING: physical memory size is smaller than virtual memory size.

*** ChampSim Multicore Out-of-Order Simulator ***
Warmup Instructions: 50000000
Simulation Instructions: 100000000
Number of CPUs: 1
Page size: 4096

Off-chip DRAM Size: 16 GiB Channels: 1 Width: 64-bit Data Rate: 3205 MT/s
Heartbeat CPU 0 instructions: 10000000 cycles: 2560230 heartbeat IPC: 3.906 cumulative IPC: 3.906 (Simulation time: 00 hr 00 min 47 sec)
Heartbeat CPU 0 instructions: 20000003 cycles: 5072616 heartbeat IPC: 3.98 cumulative IPC: 3.943 (Simulation time: 00 hr 01 min 32 sec)
Heartbeat CPU 0 instructions: 30000005 cycles: 7589776 heartbeat IPC: 3.973 cumulative IPC: 3.953 (Simulation time: 00 hr 02 min 19 sec)
Heartbeat CPU 0 instructions: 40000006 cycles: 10101810 heartbeat IPC: 3.981 cumulative IPC: 3.96 (Simulation time: 00 hr 03 min 05 sec)
Warmup finished CPU 0 instructions: 50000002 cycles: 12616106 cumulative IPC: 3.963 (Simulation time: 00 hr 03 min 52 sec)
Warmup complete CPU 0 instructions: 50000002 cycles: 12616106 cumulative IPC: 3.963 (Simulation time: 00 hr 03 min 52 sec)
Heartbeat CPU 0 instructions: 50000006 cycles: 12616107 heartbeat IPC: 3.977 cumulative IPC: 4 (Simulation time: 00 hr 03 min 52 sec)
Heartbeat CPU 0 instructions: 60000008 cycles: 16882850 heartbeat IPC: 2.344 cumulative IPC: 2.344 (Simulation time: 00 hr 04 min 48 sec)
Heartbeat CPU 0 instructions: 70000010 cycles: 21205893 heartbeat IPC: 2.313 cumulative IPC: 2.328 (Simulation time: 00 hr 05 min 44 sec)
Heartbeat CPU 0 instructions: 80000011 cycles: 25483745 heartbeat IPC: 2.338 cumulative IPC: 2.331 (Simulation time: 00 hr 06 min 39 sec)
Heartbeat CPU 0 instructions: 90000012 cycles: 29773513 heartbeat IPC: 2.331 cumulative IPC: 2.331 (Simulation time: 00 hr 07 min 34 sec)
Heartbeat CPU 0 instructions: 100000012 cycles: 33973871 heartbeat IPC: 2.381 cumulative IPC: 2.341 (Simulation time: 00 hr 08 min 26 sec)
Heartbeat CPU 0 instructions: 110000015 cycles: 38069327 heartbeat IPC: 2.442 cumulative IPC: 2.357 (Simulation time: 00 hr 09 min 20 sec)
Heartbeat CPU 0 instructions: 120000016 cycles: 50684945 heartbeat IPC: 0.7927 cumulative IPC: 1.839 (Simulation time: 00 hr 11 min 27 sec)
Heartbeat CPU 0 instructions: 130000017 cycles: 54732269 heartbeat IPC: 2.471 cumulative IPC: 1.9 (Simulation time: 00 hr 12 min 26 sec)
Heartbeat CPU 0 instructions: 140000021 cycles: 61964762 heartbeat IPC: 1.383 cumulative IPC: 1.824 (Simulation time: 00 hr 13 min 44 sec)
Simulation finished CPU 0 instructions: 100000003 cycles: 54221190 cumulative IPC: 1.844 (Simulation time: 00 hr 14 min 43 sec)
Simulation complete CPU 0 instructions: 100000003 cycles: 54221190 cumulative IPC: 1.844 (Simulation time: 00 hr 14 min 43 sec)

ChampSim completed all CPUs

=== Simulation ===
CPU 0 runs /home/zevs_gromovergec/Programming/Interview/Sber/Programming_modulating/ChampSim/tracers/625.x264_s-39B.champsimtrace.xz

Region of Interest Statistics

CPU 0 cumulative IPC: 1.844 instructions: 100000003 cycles: 54221190
CPU 0 Branch Prediction Accuracy: 91.33% MPKI: 3.491 Average ROB Occupancy at Mispredict: 77.85
Branch type MPKI
BRANCH_DIRECT_JUMP: 0.0026
BRANCH_INDIRECT: 0.00318
BRANCH_CONDITIONAL: 3.316
BRANCH_DIRECT_CALL: 0.0024
BRANCH_INDIRECT_CALL: 0.06673
BRANCH_RETURN: 0.1004

cpu0->cpu0_STLB TOTAL        ACCESS:      92246 HIT:      89767 MISS:       2479 MSHR_MERGE:          0
cpu0->cpu0_STLB LOAD         ACCESS:      92246 HIT:      89767 MISS:       2479 MSHR_MERGE:          0
cpu0->cpu0_STLB RFO          ACCESS:          0 HIT:          0 MISS:          0 MSHR_MERGE:          0
cpu0->cpu0_STLB PREFETCH     ACCESS:          0 HIT:          0 MISS:          0 MSHR_MERGE:          0
cpu0->cpu0_STLB WRITE        ACCESS:          0 HIT:          0 MISS:          0 MSHR_MERGE:          0
cpu0->cpu0_STLB TRANSLATION  ACCESS:          0 HIT:          0 MISS:          0 MSHR_MERGE:          0
cpu0->cpu0_STLB PREFETCH REQUESTED:          0 ISSUED:          0 USEFUL:          0 USELESS:          0
cpu0->cpu0_STLB AVERAGE MISS LATENCY: 744.3 cycles
cpu0->cpu0_L2C TOTAL        ACCESS:     847620 HIT:     618017 MISS:     229603 MSHR_MERGE:          0
cpu0->cpu0_L2C LOAD         ACCESS:     643140 HIT:     488316 MISS:     154824 MSHR_MERGE:          0
cpu0->cpu0_L2C RFO          ACCESS:      86003 HIT:      14799 MISS:      71204 MSHR_MERGE:          0
cpu0->cpu0_L2C PREFETCH     ACCESS:          0 HIT:          0 MISS:          0 MSHR_MERGE:          0
cpu0->cpu0_L2C WRITE        ACCESS:     114951 HIT:     114868 MISS:         83 MSHR_MERGE:          0
cpu0->cpu0_L2C TRANSLATION  ACCESS:       3526 HIT:         34 MISS:       3492 MSHR_MERGE:          0
cpu0->cpu0_L2C PREFETCH REQUESTED:          0 ISSUED:          0 USEFUL:          0 USELESS:          0
cpu0->cpu0_L2C AVERAGE MISS LATENCY: 205.2 cycles
cpu0->cpu0_L1I TOTAL        ACCESS:   11187633 HIT:   10447826 MISS:     739807 MSHR_MERGE:     294005
cpu0->cpu0_L1I LOAD         ACCESS:   11187633 HIT:   10447826 MISS:     739807 MSHR_MERGE:     294005
cpu0->cpu0_L1I RFO          ACCESS:          0 HIT:          0 MISS:          0 MSHR_MERGE:          0
cpu0->cpu0_L1I PREFETCH     ACCESS:          0 HIT:          0 MISS:          0 MSHR_MERGE:          0
cpu0->cpu0_L1I WRITE        ACCESS:          0 HIT:          0 MISS:          0 MSHR_MERGE:          0
cpu0->cpu0_L1I TRANSLATION  ACCESS:          0 HIT:          0 MISS:          0 MSHR_MERGE:          0
cpu0->cpu0_L1I PREFETCH REQUESTED:          0 ISSUED:          0 USEFUL:          0 USELESS:          0
cpu0->cpu0_L1I AVERAGE MISS LATENCY: 8.218 cycles
cpu0->cpu0_L1D TOTAL        ACCESS:   21709580 HIT:   20604299 MISS:    1105281 MSHR_MERGE:     818410
cpu0->cpu0_L1D LOAD         ACCESS:   15036012 HIT:   14595045 MISS:     440967 MSHR_MERGE:     243629
cpu0->cpu0_L1D RFO          ACCESS:          0 HIT:          0 MISS:          0 MSHR_MERGE:          0
cpu0->cpu0_L1D PREFETCH     ACCESS:          0 HIT:          0 MISS:          0 MSHR_MERGE:          0
cpu0->cpu0_L1D WRITE        ACCESS:    6668592 HIT:    6007893 MISS:     660699 MSHR_MERGE:     574692
cpu0->cpu0_L1D TRANSLATION  ACCESS:       4976 HIT:       1361 MISS:       3615 MSHR_MERGE:         89
cpu0->cpu0_L1D PREFETCH REQUESTED:          0 ISSUED:          0 USEFUL:          0 USELESS:          0
cpu0->cpu0_L1D AVERAGE MISS LATENCY: 171.3 cycles
cpu0->cpu0_ITLB TOTAL        ACCESS:    9850261 HIT:    9846824 MISS:       3437 MSHR_MERGE:       2416
cpu0->cpu0_ITLB LOAD         ACCESS:    9850261 HIT:    9846824 MISS:       3437 MSHR_MERGE:       2416
cpu0->cpu0_ITLB RFO          ACCESS:          0 HIT:          0 MISS:          0 MSHR_MERGE:          0
cpu0->cpu0_ITLB PREFETCH     ACCESS:          0 HIT:          0 MISS:          0 MSHR_MERGE:          0
cpu0->cpu0_ITLB WRITE        ACCESS:          0 HIT:          0 MISS:          0 MSHR_MERGE:          0
cpu0->cpu0_ITLB TRANSLATION  ACCESS:          0 HIT:          0 MISS:          0 MSHR_MERGE:          0
cpu0->cpu0_ITLB PREFETCH REQUESTED:          0 ISSUED:          0 USEFUL:          0 USELESS:          0
cpu0->cpu0_ITLB AVERAGE MISS LATENCY: 58.67 cycles
cpu0->cpu0_DTLB TOTAL        ACCESS:   20560726 HIT:   20369479 MISS:     191247 MSHR_MERGE:     100022
cpu0->cpu0_DTLB LOAD         ACCESS:   20560726 HIT:   20369479 MISS:     191247 MSHR_MERGE:     100022
cpu0->cpu0_DTLB RFO          ACCESS:          0 HIT:          0 MISS:          0 MSHR_MERGE:          0
cpu0->cpu0_DTLB PREFETCH     ACCESS:          0 HIT:          0 MISS:          0 MSHR_MERGE:          0
cpu0->cpu0_DTLB WRITE        ACCESS:          0 HIT:          0 MISS:          0 MSHR_MERGE:          0
cpu0->cpu0_DTLB TRANSLATION  ACCESS:          0 HIT:          0 MISS:          0 MSHR_MERGE:          0
cpu0->cpu0_DTLB PREFETCH REQUESTED:          0 ISSUED:          0 USEFUL:          0 USELESS:          0
cpu0->cpu0_DTLB AVERAGE MISS LATENCY: 24.65 cycles
cpu0->LLC TOTAL        ACCESS:     322060 HIT:     134044 MISS:     188016 MSHR_MERGE:          0
cpu0->LLC LOAD         ACCESS:     154824 HIT:      41217 MISS:     113607 MSHR_MERGE:          0
cpu0->LLC RFO          ACCESS:      71204 HIT:        471 MISS:      70733 MSHR_MERGE:          0
cpu0->LLC PREFETCH     ACCESS:          0 HIT:          0 MISS:          0 MSHR_MERGE:          0
cpu0->LLC WRITE        ACCESS:      92540 HIT:      92346 MISS:        194 MSHR_MERGE:          0
cpu0->LLC TRANSLATION  ACCESS:       3492 HIT:         10 MISS:       3482 MSHR_MERGE:          0
cpu0->LLC PREFETCH REQUESTED:          0 ISSUED:          0 USEFUL:          0 USELESS:          0
cpu0->LLC AVERAGE MISS LATENCY: 231.2 cycles

DRAM Statistics

Channel 0 RQ ROW_BUFFER_HIT:       3599
  ROW_BUFFER_MISS:     184188
  AVG DBUS CONGESTED CYCLE: 10.93
Channel 0 WQ ROW_BUFFER_HIT:      23652
  ROW_BUFFER_MISS:      68027
  FULL:          0
Channel 0 REFRESHES ISSUED:       4518
