[VMEM] WARNING: physical memory size is smaller than virtual memory size.

*** ChampSim Multicore Out-of-Order Simulator ***
Warmup Instructions: 50000000
Simulation Instructions: 100000000
Number of CPUs: 1
Page size: 4096

Off-chip DRAM Size: 16 GiB Channels: 1 Width: 64-bit Data Rate: 3205 MT/s
Heartbeat CPU 0 instructions: 10000000 cycles: 2558417 heartbeat IPC: 3.909 cumulative IPC: 3.909 (Simulation time: 00 hr 00 min 50 sec)
Heartbeat CPU 0 instructions: 20000003 cycles: 5147730 heartbeat IPC: 3.862 cumulative IPC: 3.885 (Simulation time: 00 hr 01 min 42 sec)
Heartbeat CPU 0 instructions: 30000005 cycles: 7661380 heartbeat IPC: 3.978 cumulative IPC: 3.916 (Simulation time: 00 hr 02 min 34 sec)
Heartbeat CPU 0 instructions: 40000008 cycles: 10176680 heartbeat IPC: 3.976 cumulative IPC: 3.931 (Simulation time: 00 hr 03 min 27 sec)
Warmup finished CPU 0 instructions: 50000003 cycles: 12681570 cumulative IPC: 3.943 (Simulation time: 00 hr 04 min 20 sec)
Warmup complete CPU 0 instructions: 50000003 cycles: 12681570 cumulative IPC: 3.943 (Simulation time: 00 hr 04 min 20 sec)
Heartbeat CPU 0 instructions: 50000008 cycles: 12681571 heartbeat IPC: 3.992 cumulative IPC: 5 (Simulation time: 00 hr 04 min 20 sec)
Heartbeat CPU 0 instructions: 60000009 cycles: 17413260 heartbeat IPC: 2.113 cumulative IPC: 2.113 (Simulation time: 00 hr 05 min 37 sec)
Heartbeat CPU 0 instructions: 70000010 cycles: 22475911 heartbeat IPC: 1.975 cumulative IPC: 2.042 (Simulation time: 00 hr 06 min 57 sec)
Heartbeat CPU 0 instructions: 80000014 cycles: 27542256 heartbeat IPC: 1.974 cumulative IPC: 2.019 (Simulation time: 00 hr 08 min 15 sec)
Heartbeat CPU 0 instructions: 90000014 cycles: 32683317 heartbeat IPC: 1.945 cumulative IPC: 2 (Simulation time: 00 hr 09 min 36 sec)
Heartbeat CPU 0 instructions: 100000015 cycles: 37739897 heartbeat IPC: 1.978 cumulative IPC: 1.995 (Simulation time: 00 hr 10 min 56 sec)
Heartbeat CPU 0 instructions: 110000017 cycles: 42805313 heartbeat IPC: 1.974 cumulative IPC: 1.992 (Simulation time: 00 hr 12 min 16 sec)
Heartbeat CPU 0 instructions: 120000021 cycles: 47879610 heartbeat IPC: 1.971 cumulative IPC: 1.989 (Simulation time: 00 hr 13 min 36 sec)
Heartbeat CPU 0 instructions: 130000022 cycles: 52935988 heartbeat IPC: 1.978 cumulative IPC: 1.987 (Simulation time: 00 hr 14 min 56 sec)
Heartbeat CPU 0 instructions: 140000024 cycles: 58021633 heartbeat IPC: 1.966 cumulative IPC: 1.985 (Simulation time: 00 hr 16 min 15 sec)
Simulation finished CPU 0 instructions: 100000004 cycles: 50408333 cumulative IPC: 1.984 (Simulation time: 00 hr 17 min 35 sec)
Simulation complete CPU 0 instructions: 100000004 cycles: 50408333 cumulative IPC: 1.984 (Simulation time: 00 hr 17 min 35 sec)

ChampSim completed all CPUs

=== Simulation ===
CPU 0 runs /home/zevs_gromovergec/Programming/Interview/Sber/Programming_modulating/ChampSim/tracers/456.hmmer-327B.champsimtrace.xz

Region of Interest Statistics

CPU 0 cumulative IPC: 1.984 instructions: 100000004 cycles: 50408333
CPU 0 Branch Prediction Accuracy: 99.38% MPKI: 0.2744 Average ROB Occupancy at Mispredict: 106.3
Branch type MPKI
BRANCH_DIRECT_JUMP: 2e-05
BRANCH_INDIRECT: 0.00042
BRANCH_CONDITIONAL: 0.2738
BRANCH_DIRECT_CALL: 4e-05
BRANCH_INDIRECT_CALL: 0.0001
BRANCH_RETURN: 5e-05

cpu0->cpu0_STLB TOTAL        ACCESS:       6563 HIT:       6429 MISS:        134 MSHR_MERGE:          0
cpu0->cpu0_STLB LOAD         ACCESS:       6563 HIT:       6429 MISS:        134 MSHR_MERGE:          0
cpu0->cpu0_STLB RFO          ACCESS:          0 HIT:          0 MISS:          0 MSHR_MERGE:          0
cpu0->cpu0_STLB PREFETCH     ACCESS:          0 HIT:          0 MISS:          0 MSHR_MERGE:          0
cpu0->cpu0_STLB WRITE        ACCESS:          0 HIT:          0 MISS:          0 MSHR_MERGE:          0
cpu0->cpu0_STLB TRANSLATION  ACCESS:          0 HIT:          0 MISS:          0 MSHR_MERGE:          0
cpu0->cpu0_STLB PREFETCH REQUESTED:          0 ISSUED:          0 USEFUL:          0 USELESS:          0
cpu0->cpu0_STLB AVERAGE MISS LATENCY: 681.2 cycles
cpu0->cpu0_L2C TOTAL        ACCESS:     681262 HIT:     391348 MISS:     289914 MSHR_MERGE:          0
cpu0->cpu0_L2C LOAD         ACCESS:     147627 HIT:     124021 MISS:      23606 MSHR_MERGE:          0
cpu0->cpu0_L2C RFO          ACCESS:     266400 HIT:        294 MISS:     266106 MSHR_MERGE:          0
cpu0->cpu0_L2C PREFETCH     ACCESS:          0 HIT:          0 MISS:          0 MSHR_MERGE:          0
cpu0->cpu0_L2C WRITE        ACCESS:     267065 HIT:     267025 MISS:         40 MSHR_MERGE:          0
cpu0->cpu0_L2C TRANSLATION  ACCESS:        170 HIT:          8 MISS:        162 MSHR_MERGE:          0
cpu0->cpu0_L2C PREFETCH REQUESTED:          0 ISSUED:          0 USEFUL:          0 USELESS:          0
cpu0->cpu0_L2C AVERAGE MISS LATENCY: 72.95 cycles
cpu0->cpu0_L1I TOTAL        ACCESS:   19721195 HIT:   19721190 MISS:          5 MSHR_MERGE:          0
cpu0->cpu0_L1I LOAD         ACCESS:   19721195 HIT:   19721190 MISS:          5 MSHR_MERGE:          0
cpu0->cpu0_L1I RFO          ACCESS:          0 HIT:          0 MISS:          0 MSHR_MERGE:          0
cpu0->cpu0_L1I PREFETCH     ACCESS:          0 HIT:          0 MISS:          0 MSHR_MERGE:          0
cpu0->cpu0_L1I WRITE        ACCESS:          0 HIT:          0 MISS:          0 MSHR_MERGE:          0
cpu0->cpu0_L1I TRANSLATION  ACCESS:          0 HIT:          0 MISS:          0 MSHR_MERGE:          0
cpu0->cpu0_L1I PREFETCH REQUESTED:          0 ISSUED:          0 USEFUL:          0 USELESS:          0
cpu0->cpu0_L1I AVERAGE MISS LATENCY: 216.6 cycles
cpu0->cpu0_L1D TOTAL        ACCESS:   44452594 HIT:   41981676 MISS:    2470918 MSHR_MERGE:    2056726
cpu0->cpu0_L1D LOAD         ACCESS:   31501373 HIT:   31347025 MISS:     154348 MSHR_MERGE:       6726
cpu0->cpu0_L1D RFO          ACCESS:          0 HIT:          0 MISS:          0 MSHR_MERGE:          0
cpu0->cpu0_L1D PREFETCH     ACCESS:          0 HIT:          0 MISS:          0 MSHR_MERGE:          0
cpu0->cpu0_L1D WRITE        ACCESS:   12950953 HIT:   10634553 MISS:    2316400 MSHR_MERGE:    2050000
cpu0->cpu0_L1D TRANSLATION  ACCESS:        268 HIT:         98 MISS:        170 MSHR_MERGE:          0
cpu0->cpu0_L1D PREFETCH REQUESTED:          0 ISSUED:          0 USEFUL:          0 USELESS:          0
cpu0->cpu0_L1D AVERAGE MISS LATENCY: 59.78 cycles
cpu0->cpu0_ITLB TOTAL        ACCESS:   18199660 HIT:   18199658 MISS:          2 MSHR_MERGE:          1
cpu0->cpu0_ITLB LOAD         ACCESS:   18199660 HIT:   18199658 MISS:          2 MSHR_MERGE:          1
cpu0->cpu0_ITLB RFO          ACCESS:          0 HIT:          0 MISS:          0 MSHR_MERGE:          0
cpu0->cpu0_ITLB PREFETCH     ACCESS:          0 HIT:          0 MISS:          0 MSHR_MERGE:          0
cpu0->cpu0_ITLB WRITE        ACCESS:          0 HIT:          0 MISS:          0 MSHR_MERGE:          0
cpu0->cpu0_ITLB TRANSLATION  ACCESS:          0 HIT:          0 MISS:          0 MSHR_MERGE:          0
cpu0->cpu0_ITLB PREFETCH REQUESTED:          0 ISSUED:          0 USEFUL:          0 USELESS:          0
cpu0->cpu0_ITLB AVERAGE MISS LATENCY: 809 cycles
cpu0->cpu0_DTLB TOTAL        ACCESS:   42336088 HIT:   42324569 MISS:      11519 MSHR_MERGE:       4957
cpu0->cpu0_DTLB LOAD         ACCESS:   42336088 HIT:   42324569 MISS:      11519 MSHR_MERGE:       4957
cpu0->cpu0_DTLB RFO          ACCESS:          0 HIT:          0 MISS:          0 MSHR_MERGE:          0
cpu0->cpu0_DTLB PREFETCH     ACCESS:          0 HIT:          0 MISS:          0 MSHR_MERGE:          0
cpu0->cpu0_DTLB WRITE        ACCESS:          0 HIT:          0 MISS:          0 MSHR_MERGE:          0
cpu0->cpu0_DTLB TRANSLATION  ACCESS:          0 HIT:          0 MISS:          0 MSHR_MERGE:          0
cpu0->cpu0_DTLB PREFETCH REQUESTED:          0 ISSUED:          0 USEFUL:          0 USELESS:          0
cpu0->cpu0_DTLB AVERAGE MISS LATENCY: 18.82 cycles
cpu0->LLC TOTAL        ACCESS:     556740 HIT:     467786 MISS:      88954 MSHR_MERGE:          0
cpu0->LLC LOAD         ACCESS:      23606 HIT:      22085 MISS:       1521 MSHR_MERGE:          0
cpu0->LLC RFO          ACCESS:     266106 HIT:     178865 MISS:      87241 MSHR_MERGE:          0
cpu0->LLC PREFETCH     ACCESS:          0 HIT:          0 MISS:          0 MSHR_MERGE:          0
cpu0->LLC WRITE        ACCESS:     266866 HIT:     266833 MISS:         33 MSHR_MERGE:          0
cpu0->LLC TRANSLATION  ACCESS:        162 HIT:          3 MISS:        159 MSHR_MERGE:          0
cpu0->LLC PREFETCH REQUESTED:          0 ISSUED:          0 USEFUL:          0 USELESS:          0
cpu0->LLC AVERAGE MISS LATENCY: 187.8 cycles

DRAM Statistics

Channel 0 RQ ROW_BUFFER_HIT:         22
  ROW_BUFFER_MISS:      88895
  AVG DBUS CONGESTED CYCLE: 7.05
Channel 0 WQ ROW_BUFFER_HIT:       1605
  ROW_BUFFER_MISS:      84793
  FULL:          0
Channel 0 REFRESHES ISSUED:       4201
