[VMEM] WARNING: physical memory size is smaller than virtual memory size.

*** ChampSim Multicore Out-of-Order Simulator ***
Warmup Instructions: 50000000
Simulation Instructions: 100000000
Number of CPUs: 1
Page size: 4096

Initialize SIGNATURE TABLE
ST_SET: 1
ST_WAY: 256
ST_TAG_BIT: 16

Initialize PATTERN TABLE
PT_SET: 512
PT_WAY: 4
SIG_DELTA_BIT: 7
C_SIG_BIT: 4
C_DELTA_BIT: 4

Initialize PREFETCH FILTER
FILTER_SET: 1024
Off-chip DRAM Size: 16 GiB Channels: 1 Width: 64-bit Data Rate: 3205 MT/s
Heartbeat CPU 0 instructions: 10000001 cycles: 2675791 heartbeat IPC: 3.737 cumulative IPC: 3.737 (Simulation time: 00 hr 00 min 50 sec)
Heartbeat CPU 0 instructions: 20000004 cycles: 5356450 heartbeat IPC: 3.73 cumulative IPC: 3.734 (Simulation time: 00 hr 01 min 38 sec)
Heartbeat CPU 0 instructions: 30000006 cycles: 8082444 heartbeat IPC: 3.668 cumulative IPC: 3.712 (Simulation time: 00 hr 02 min 27 sec)
Heartbeat CPU 0 instructions: 40000009 cycles: 10804076 heartbeat IPC: 3.674 cumulative IPC: 3.702 (Simulation time: 00 hr 03 min 16 sec)
Warmup finished CPU 0 instructions: 50000001 cycles: 13519079 cumulative IPC: 3.698 (Simulation time: 00 hr 04 min 06 sec)
Warmup complete CPU 0 instructions: 50000001 cycles: 13519079 cumulative IPC: 3.698 (Simulation time: 00 hr 04 min 06 sec)
Heartbeat CPU 0 instructions: 50000013 cycles: 13519085 heartbeat IPC: 3.683 cumulative IPC: 2 (Simulation time: 00 hr 04 min 06 sec)
Heartbeat CPU 0 instructions: 60000013 cycles: 18219718 heartbeat IPC: 2.127 cumulative IPC: 2.127 (Simulation time: 00 hr 05 min 22 sec)
Heartbeat CPU 0 instructions: 70000016 cycles: 22933376 heartbeat IPC: 2.121 cumulative IPC: 2.124 (Simulation time: 00 hr 06 min 40 sec)
Heartbeat CPU 0 instructions: 80000018 cycles: 27654898 heartbeat IPC: 2.118 cumulative IPC: 2.122 (Simulation time: 00 hr 07 min 57 sec)
Heartbeat CPU 0 instructions: 90000019 cycles: 32966176 heartbeat IPC: 1.883 cumulative IPC: 2.057 (Simulation time: 00 hr 09 min 23 sec)
Heartbeat CPU 0 instructions: 100000020 cycles: 38307325 heartbeat IPC: 1.872 cumulative IPC: 2.017 (Simulation time: 00 hr 10 min 48 sec)
Heartbeat CPU 0 instructions: 110000022 cycles: 43667236 heartbeat IPC: 1.866 cumulative IPC: 1.99 (Simulation time: 00 hr 12 min 12 sec)
Heartbeat CPU 0 instructions: 120000025 cycles: 49157789 heartbeat IPC: 1.821 cumulative IPC: 1.964 (Simulation time: 00 hr 13 min 38 sec)
Heartbeat CPU 0 instructions: 130000026 cycles: 54630115 heartbeat IPC: 1.827 cumulative IPC: 1.946 (Simulation time: 00 hr 15 min 03 sec)
Heartbeat CPU 0 instructions: 140000028 cycles: 60118362 heartbeat IPC: 1.822 cumulative IPC: 1.931 (Simulation time: 00 hr 16 min 29 sec)
Simulation finished CPU 0 instructions: 100000000 cycles: 52043571 cumulative IPC: 1.921 (Simulation time: 00 hr 17 min 53 sec)
Simulation complete CPU 0 instructions: 100000000 cycles: 52043571 cumulative IPC: 1.921 (Simulation time: 00 hr 17 min 53 sec)

ChampSim completed all CPUs

=== Simulation ===
CPU 0 runs /home/zevs_gromovergec/Programming/Interview/Sber/Programming_modulating/ChampSim/tracers/437.leslie3d-273B.champsimtrace.xz

Region of Interest Statistics

CPU 0 cumulative IPC: 1.921 instructions: 100000000 cycles: 52043571
CPU 0 Branch Prediction Accuracy: 99.19% MPKI: 0.1548 Average ROB Occupancy at Mispredict: 335.9
Branch type MPKI
BRANCH_DIRECT_JUMP: 6e-05
BRANCH_INDIRECT: 0
BRANCH_CONDITIONAL: 0.1547
BRANCH_DIRECT_CALL: 0
BRANCH_INDIRECT_CALL: 0
BRANCH_RETURN: 1e-05

cpu0->cpu0_STLB TOTAL        ACCESS:      14224 HIT:        495 MISS:      13729 MSHR_MERGE:          0
cpu0->cpu0_STLB LOAD         ACCESS:      14224 HIT:        495 MISS:      13729 MSHR_MERGE:          0
cpu0->cpu0_STLB RFO          ACCESS:          0 HIT:          0 MISS:          0 MSHR_MERGE:          0
cpu0->cpu0_STLB PREFETCH     ACCESS:          0 HIT:          0 MISS:          0 MSHR_MERGE:          0
cpu0->cpu0_STLB WRITE        ACCESS:          0 HIT:          0 MISS:          0 MSHR_MERGE:          0
cpu0->cpu0_STLB TRANSLATION  ACCESS:          0 HIT:          0 MISS:          0 MSHR_MERGE:          0
cpu0->cpu0_STLB PREFETCH REQUESTED:          0 ISSUED:          0 USEFUL:          0 USELESS:          0
cpu0->cpu0_STLB AVERAGE MISS LATENCY: 500.6 cycles
cpu0->cpu0_L2C TOTAL        ACCESS:    6332481 HIT:     460348 MISS:    5872133 MSHR_MERGE:       2526
cpu0->cpu0_L2C LOAD         ACCESS:     606235 HIT:     391263 MISS:     214972 MSHR_MERGE:       2055
cpu0->cpu0_L2C RFO          ACCESS:     268539 HIT:       3791 MISS:     264748 MSHR_MERGE:          0
cpu0->cpu0_L2C PREFETCH     ACCESS:    5169936 HIT:      14160 MISS:    5155776 MSHR_MERGE:        471
cpu0->cpu0_L2C WRITE        ACCESS:     271815 HIT:      51125 MISS:     220690 MSHR_MERGE:          0
cpu0->cpu0_L2C TRANSLATION  ACCESS:      15956 HIT:          9 MISS:      15947 MSHR_MERGE:          0
cpu0->cpu0_L2C PREFETCH REQUESTED:    6755712 ISSUED:    5169936 USEFUL:     385708 USELESS:      47381
cpu0->cpu0_L2C AVERAGE MISS LATENCY: 115.3 cycles
cpu0->cpu0_L1I TOTAL        ACCESS:   21313566 HIT:   21313412 MISS:        154 MSHR_MERGE:         66
cpu0->cpu0_L1I LOAD         ACCESS:   21313566 HIT:   21313412 MISS:        154 MSHR_MERGE:         66
cpu0->cpu0_L1I RFO          ACCESS:          0 HIT:          0 MISS:          0 MSHR_MERGE:          0
cpu0->cpu0_L1I PREFETCH     ACCESS:          0 HIT:          0 MISS:          0 MSHR_MERGE:          0
cpu0->cpu0_L1I WRITE        ACCESS:          0 HIT:          0 MISS:          0 MSHR_MERGE:          0
cpu0->cpu0_L1I TRANSLATION  ACCESS:          0 HIT:          0 MISS:          0 MSHR_MERGE:          0
cpu0->cpu0_L1I PREFETCH REQUESTED:          0 ISSUED:          0 USEFUL:          0 USELESS:          0
cpu0->cpu0_L1I AVERAGE MISS LATENCY: 166.4 cycles
cpu0->cpu0_L1D TOTAL        ACCESS:   35953309 HIT:   33285634 MISS:    2667675 MSHR_MERGE:    1777033
cpu0->cpu0_L1D LOAD         ACCESS:   33709489 HIT:   32916761 MISS:     792728 MSHR_MERGE:     186581
cpu0->cpu0_L1D RFO          ACCESS:          0 HIT:          0 MISS:          0 MSHR_MERGE:          0
cpu0->cpu0_L1D PREFETCH     ACCESS:          0 HIT:          0 MISS:          0 MSHR_MERGE:          0
cpu0->cpu0_L1D WRITE        ACCESS:    2216348 HIT:     357361 MISS:    1858987 MSHR_MERGE:    1590448
cpu0->cpu0_L1D TRANSLATION  ACCESS:      27472 HIT:      11512 MISS:      15960 MSHR_MERGE:          4
cpu0->cpu0_L1D PREFETCH REQUESTED:          0 ISSUED:          0 USEFUL:          0 USELESS:          0
cpu0->cpu0_L1D AVERAGE MISS LATENCY: 100.3 cycles
cpu0->cpu0_ITLB TOTAL        ACCESS:   17761857 HIT:   17761850 MISS:          7 MSHR_MERGE:          5
cpu0->cpu0_ITLB LOAD         ACCESS:   17761857 HIT:   17761850 MISS:          7 MSHR_MERGE:          5
cpu0->cpu0_ITLB RFO          ACCESS:          0 HIT:          0 MISS:          0 MSHR_MERGE:          0
cpu0->cpu0_ITLB PREFETCH     ACCESS:          0 HIT:          0 MISS:          0 MSHR_MERGE:          0
cpu0->cpu0_ITLB WRITE        ACCESS:          0 HIT:          0 MISS:          0 MSHR_MERGE:          0
cpu0->cpu0_ITLB TRANSLATION  ACCESS:          0 HIT:          0 MISS:          0 MSHR_MERGE:          0
cpu0->cpu0_ITLB PREFETCH REQUESTED:          0 ISSUED:          0 USEFUL:          0 USELESS:          0
cpu0->cpu0_ITLB AVERAGE MISS LATENCY: 984.5 cycles
cpu0->cpu0_DTLB TOTAL        ACCESS:   34602188 HIT:   34527322 MISS:      74866 MSHR_MERGE:      60644
cpu0->cpu0_DTLB LOAD         ACCESS:   34602188 HIT:   34527322 MISS:      74866 MSHR_MERGE:      60644
cpu0->cpu0_DTLB RFO          ACCESS:          0 HIT:          0 MISS:          0 MSHR_MERGE:          0
cpu0->cpu0_DTLB PREFETCH     ACCESS:          0 HIT:          0 MISS:          0 MSHR_MERGE:          0
cpu0->cpu0_DTLB WRITE        ACCESS:          0 HIT:          0 MISS:          0 MSHR_MERGE:          0
cpu0->cpu0_DTLB TRANSLATION  ACCESS:          0 HIT:          0 MISS:          0 MSHR_MERGE:          0
cpu0->cpu0_DTLB PREFETCH REQUESTED:          0 ISSUED:          0 USEFUL:          0 USELESS:          0
cpu0->cpu0_DTLB AVERAGE MISS LATENCY: 489 cycles
cpu0->LLC TOTAL        ACCESS:    5879437 HIT:    3931498 MISS:    1947939 MSHR_MERGE:    1072340
cpu0->LLC LOAD         ACCESS:     212917 HIT:     199298 MISS:      13619 MSHR_MERGE:        921
cpu0->LLC RFO          ACCESS:     264748 HIT:        429 MISS:     264319 MSHR_MERGE:          0
cpu0->LLC PREFETCH     ACCESS:    5120404 HIT:    3466179 MISS:    1654225 MSHR_MERGE:    1071419
cpu0->LLC WRITE        ACCESS:     265421 HIT:     265416 MISS:          5 MSHR_MERGE:          0
cpu0->LLC TRANSLATION  ACCESS:      15947 HIT:        176 MISS:      15771 MSHR_MERGE:          0
cpu0->LLC PREFETCH REQUESTED:          0 ISSUED:          0 USEFUL:          0 USELESS:          0
cpu0->LLC AVERAGE MISS LATENCY: 251.1 cycles

DRAM Statistics

Channel 0 RQ ROW_BUFFER_HIT:       5369
  ROW_BUFFER_MISS:     870223
  AVG DBUS CONGESTED CYCLE: 7.916
Channel 0 WQ ROW_BUFFER_HIT:      58809
  ROW_BUFFER_MISS:     216883
  FULL:          0
Channel 0 REFRESHES ISSUED:       4337
