[VMEM] WARNING: physical memory size is smaller than virtual memory size.

*** ChampSim Multicore Out-of-Order Simulator ***
Warmup Instructions: 50000000
Simulation Instructions: 100000000
Number of CPUs: 1
Page size: 4096

Initialize SIGNATURE TABLE
ST_SET: 1
ST_WAY: 256
ST_TAG_BIT: 16

Initialize PATTERN TABLE
PT_SET: 512
PT_WAY: 4
SIG_DELTA_BIT: 7
C_SIG_BIT: 4
C_DELTA_BIT: 4

Initialize PREFETCH FILTER
FILTER_SET: 1024
Off-chip DRAM Size: 16 GiB Channels: 1 Width: 64-bit Data Rate: 3205 MT/s
Heartbeat CPU 0 instructions: 10000000 cycles: 2558419 heartbeat IPC: 3.909 cumulative IPC: 3.909 (Simulation time: 00 hr 00 min 54 sec)
Heartbeat CPU 0 instructions: 20000002 cycles: 5147760 heartbeat IPC: 3.862 cumulative IPC: 3.885 (Simulation time: 00 hr 01 min 49 sec)
Heartbeat CPU 0 instructions: 30000005 cycles: 7660522 heartbeat IPC: 3.98 cumulative IPC: 3.916 (Simulation time: 00 hr 02 min 44 sec)
Heartbeat CPU 0 instructions: 40000008 cycles: 10175832 heartbeat IPC: 3.976 cumulative IPC: 3.931 (Simulation time: 00 hr 03 min 39 sec)
Warmup finished CPU 0 instructions: 50000000 cycles: 12679592 cumulative IPC: 3.943 (Simulation time: 00 hr 04 min 34 sec)
Warmup complete CPU 0 instructions: 50000000 cycles: 12679592 cumulative IPC: 3.943 (Simulation time: 00 hr 04 min 34 sec)
Heartbeat CPU 0 instructions: 50000010 cycles: 12679594 heartbeat IPC: 3.994 cumulative IPC: 5 (Simulation time: 00 hr 04 min 34 sec)
Heartbeat CPU 0 instructions: 60000014 cycles: 17376491 heartbeat IPC: 2.129 cumulative IPC: 2.129 (Simulation time: 00 hr 05 min 51 sec)
Heartbeat CPU 0 instructions: 70000018 cycles: 22397966 heartbeat IPC: 1.991 cumulative IPC: 2.058 (Simulation time: 00 hr 07 min 11 sec)
Heartbeat CPU 0 instructions: 80000018 cycles: 27416897 heartbeat IPC: 1.992 cumulative IPC: 2.036 (Simulation time: 00 hr 08 min 30 sec)
Heartbeat CPU 0 instructions: 90000019 cycles: 32473747 heartbeat IPC: 1.978 cumulative IPC: 2.021 (Simulation time: 00 hr 09 min 49 sec)
Heartbeat CPU 0 instructions: 100000019 cycles: 37495939 heartbeat IPC: 1.991 cumulative IPC: 2.015 (Simulation time: 00 hr 11 min 07 sec)
Heartbeat CPU 0 instructions: 110000020 cycles: 42517510 heartbeat IPC: 1.991 cumulative IPC: 2.011 (Simulation time: 00 hr 12 min 27 sec)
Heartbeat CPU 0 instructions: 120000023 cycles: 47541215 heartbeat IPC: 1.991 cumulative IPC: 2.008 (Simulation time: 00 hr 13 min 47 sec)
Heartbeat CPU 0 instructions: 130000025 cycles: 52561000 heartbeat IPC: 1.992 cumulative IPC: 2.006 (Simulation time: 00 hr 15 min 07 sec)
Heartbeat CPU 0 instructions: 140000026 cycles: 57598792 heartbeat IPC: 1.985 cumulative IPC: 2.004 (Simulation time: 00 hr 16 min 27 sec)
Simulation finished CPU 0 instructions: 100000002 cycles: 49943366 cumulative IPC: 2.002 (Simulation time: 00 hr 17 min 46 sec)
Simulation complete CPU 0 instructions: 100000002 cycles: 49943366 cumulative IPC: 2.002 (Simulation time: 00 hr 17 min 46 sec)

ChampSim completed all CPUs

=== Simulation ===
CPU 0 runs /home/zevs_gromovergec/Programming/Interview/Sber/Programming_modulating/ChampSim/tracers/456.hmmer-327B.champsimtrace.xz

Region of Interest Statistics

CPU 0 cumulative IPC: 2.002 instructions: 100000002 cycles: 49943366
CPU 0 Branch Prediction Accuracy: 99.38% MPKI: 0.2744 Average ROB Occupancy at Mispredict: 104.5
Branch type MPKI
BRANCH_DIRECT_JUMP: 2e-05
BRANCH_INDIRECT: 0.00042
BRANCH_CONDITIONAL: 0.2738
BRANCH_DIRECT_CALL: 4e-05
BRANCH_INDIRECT_CALL: 0.0001
BRANCH_RETURN: 5e-05

cpu0->cpu0_STLB TOTAL        ACCESS:       6571 HIT:       6437 MISS:        134 MSHR_MERGE:          0
cpu0->cpu0_STLB LOAD         ACCESS:       6571 HIT:       6437 MISS:        134 MSHR_MERGE:          0
cpu0->cpu0_STLB RFO          ACCESS:          0 HIT:          0 MISS:          0 MSHR_MERGE:          0
cpu0->cpu0_STLB PREFETCH     ACCESS:          0 HIT:          0 MISS:          0 MSHR_MERGE:          0
cpu0->cpu0_STLB WRITE        ACCESS:          0 HIT:          0 MISS:          0 MSHR_MERGE:          0
cpu0->cpu0_STLB TRANSLATION  ACCESS:          0 HIT:          0 MISS:          0 MSHR_MERGE:          0
cpu0->cpu0_STLB PREFETCH REQUESTED:          0 ISSUED:          0 USEFUL:          0 USELESS:          0
cpu0->cpu0_STLB AVERAGE MISS LATENCY: 675.2 cycles
cpu0->cpu0_L2C TOTAL        ACCESS:    1373509 HIT:     901524 MISS:     471985 MSHR_MERGE:       1061
cpu0->cpu0_L2C LOAD         ACCESS:     147644 HIT:     143828 MISS:       3816 MSHR_MERGE:          6
cpu0->cpu0_L2C RFO          ACCESS:     266400 HIT:       6913 MISS:     259487 MSHR_MERGE:          0
cpu0->cpu0_L2C PREFETCH     ACCESS:     692230 HIT:     678573 MISS:      13657 MSHR_MERGE:       1055
cpu0->cpu0_L2C WRITE        ACCESS:     267065 HIT:      72206 MISS:     194859 MSHR_MERGE:          0
cpu0->cpu0_L2C TRANSLATION  ACCESS:        170 HIT:          4 MISS:        166 MSHR_MERGE:          0
cpu0->cpu0_L2C PREFETCH REQUESTED:     692257 ISSUED:     692230 USEFUL:         80 USELESS:        418
cpu0->cpu0_L2C AVERAGE MISS LATENCY: 38.82 cycles
cpu0->cpu0_L1I TOTAL        ACCESS:   19603761 HIT:   19603756 MISS:          5 MSHR_MERGE:          0
cpu0->cpu0_L1I LOAD         ACCESS:   19603761 HIT:   19603756 MISS:          5 MSHR_MERGE:          0
cpu0->cpu0_L1I RFO          ACCESS:          0 HIT:          0 MISS:          0 MSHR_MERGE:          0
cpu0->cpu0_L1I PREFETCH     ACCESS:          0 HIT:          0 MISS:          0 MSHR_MERGE:          0
cpu0->cpu0_L1I WRITE        ACCESS:          0 HIT:          0 MISS:          0 MSHR_MERGE:          0
cpu0->cpu0_L1I TRANSLATION  ACCESS:          0 HIT:          0 MISS:          0 MSHR_MERGE:          0
cpu0->cpu0_L1I PREFETCH REQUESTED:          0 ISSUED:          0 USEFUL:          0 USELESS:          0
cpu0->cpu0_L1I AVERAGE MISS LATENCY: 186.2 cycles
cpu0->cpu0_L1D TOTAL        ACCESS:   44461683 HIT:   42303453 MISS:    2158230 MSHR_MERGE:    1744021
cpu0->cpu0_L1D LOAD         ACCESS:   31490265 HIT:   31338251 MISS:     152014 MSHR_MERGE:       4375
cpu0->cpu0_L1D RFO          ACCESS:          0 HIT:          0 MISS:          0 MSHR_MERGE:          0
cpu0->cpu0_L1D PREFETCH     ACCESS:          0 HIT:          0 MISS:          0 MSHR_MERGE:          0
cpu0->cpu0_L1D WRITE        ACCESS:   12971150 HIT:   10965104 MISS:    2006046 MSHR_MERGE:    1739646
cpu0->cpu0_L1D TRANSLATION  ACCESS:        268 HIT:         98 MISS:        170 MSHR_MERGE:          0
cpu0->cpu0_L1D PREFETCH REQUESTED:          0 ISSUED:          0 USEFUL:          0 USELESS:          0
cpu0->cpu0_L1D AVERAGE MISS LATENCY: 49.72 cycles
cpu0->cpu0_ITLB TOTAL        ACCESS:   18124371 HIT:   18124369 MISS:          2 MSHR_MERGE:          1
cpu0->cpu0_ITLB LOAD         ACCESS:   18124371 HIT:   18124369 MISS:          2 MSHR_MERGE:          1
cpu0->cpu0_ITLB RFO          ACCESS:          0 HIT:          0 MISS:          0 MSHR_MERGE:          0
cpu0->cpu0_ITLB PREFETCH     ACCESS:          0 HIT:          0 MISS:          0 MSHR_MERGE:          0
cpu0->cpu0_ITLB WRITE        ACCESS:          0 HIT:          0 MISS:          0 MSHR_MERGE:          0
cpu0->cpu0_ITLB TRANSLATION  ACCESS:          0 HIT:          0 MISS:          0 MSHR_MERGE:          0
cpu0->cpu0_ITLB PREFETCH REQUESTED:          0 ISSUED:          0 USEFUL:          0 USELESS:          0
cpu0->cpu0_ITLB AVERAGE MISS LATENCY: 871 cycles
cpu0->cpu0_DTLB TOTAL        ACCESS:   42338281 HIT:   42326778 MISS:      11503 MSHR_MERGE:       4933
cpu0->cpu0_DTLB LOAD         ACCESS:   42338281 HIT:   42326778 MISS:      11503 MSHR_MERGE:       4933
cpu0->cpu0_DTLB RFO          ACCESS:          0 HIT:          0 MISS:          0 MSHR_MERGE:          0
cpu0->cpu0_DTLB PREFETCH     ACCESS:          0 HIT:          0 MISS:          0 MSHR_MERGE:          0
cpu0->cpu0_DTLB WRITE        ACCESS:          0 HIT:          0 MISS:          0 MSHR_MERGE:          0
cpu0->cpu0_DTLB TRANSLATION  ACCESS:          0 HIT:          0 MISS:          0 MSHR_MERGE:          0
cpu0->cpu0_DTLB PREFETCH REQUESTED:          0 ISSUED:          0 USEFUL:          0 USELESS:          0
cpu0->cpu0_DTLB AVERAGE MISS LATENCY: 18.67 cycles
cpu0->LLC TOTAL        ACCESS:     535562 HIT:     465059 MISS:      70503 MSHR_MERGE:         74
cpu0->LLC LOAD         ACCESS:       3810 HIT:       3682 MISS:        128 MSHR_MERGE:          3
cpu0->LLC RFO          ACCESS:     259487 HIT:     190031 MISS:      69456 MSHR_MERGE:          0
cpu0->LLC PREFETCH     ACCESS:      12541 HIT:      11935 MISS:        606 MSHR_MERGE:         71
cpu0->LLC WRITE        ACCESS:     259558 HIT:     259404 MISS:        154 MSHR_MERGE:          0
cpu0->LLC TRANSLATION  ACCESS:        166 HIT:          7 MISS:        159 MSHR_MERGE:          0
cpu0->LLC PREFETCH REQUESTED:          0 ISSUED:          0 USEFUL:          0 USELESS:          0
cpu0->LLC AVERAGE MISS LATENCY: 185.7 cycles

DRAM Statistics

Channel 0 RQ ROW_BUFFER_HIT:         10
  ROW_BUFFER_MISS:      70260
  AVG DBUS CONGESTED CYCLE: 6.622
Channel 0 WQ ROW_BUFFER_HIT:        999
  ROW_BUFFER_MISS:      67457
  FULL:          0
Channel 0 REFRESHES ISSUED:       4162
