[VMEM] WARNING: physical memory size is smaller than virtual memory size.

*** ChampSim Multicore Out-of-Order Simulator ***
Warmup Instructions: 50000000
Simulation Instructions: 100000000
Number of CPUs: 1
Page size: 4096

Off-chip DRAM Size: 16 GiB Channels: 1 Width: 64-bit Data Rate: 3205 MT/s
Heartbeat CPU 0 instructions: 10000000 cycles: 2560230 heartbeat IPC: 3.906 cumulative IPC: 3.906 (Simulation time: 00 hr 00 min 43 sec)
Heartbeat CPU 0 instructions: 20000003 cycles: 5072754 heartbeat IPC: 3.98 cumulative IPC: 3.943 (Simulation time: 00 hr 01 min 28 sec)
Heartbeat CPU 0 instructions: 30000005 cycles: 7589941 heartbeat IPC: 3.973 cumulative IPC: 3.953 (Simulation time: 00 hr 02 min 13 sec)
Heartbeat CPU 0 instructions: 40000006 cycles: 10102040 heartbeat IPC: 3.981 cumulative IPC: 3.96 (Simulation time: 00 hr 02 min 58 sec)
Warmup finished CPU 0 instructions: 50000000 cycles: 12616345 cumulative IPC: 3.963 (Simulation time: 00 hr 03 min 43 sec)
Warmup complete CPU 0 instructions: 50000000 cycles: 12616345 cumulative IPC: 3.963 (Simulation time: 00 hr 03 min 43 sec)
Heartbeat CPU 0 instructions: 50000008 cycles: 12616347 heartbeat IPC: 3.977 cumulative IPC: 4 (Simulation time: 00 hr 03 min 43 sec)
Heartbeat CPU 0 instructions: 60000008 cycles: 16886554 heartbeat IPC: 2.342 cumulative IPC: 2.342 (Simulation time: 00 hr 04 min 38 sec)
Heartbeat CPU 0 instructions: 70000010 cycles: 21202985 heartbeat IPC: 2.317 cumulative IPC: 2.329 (Simulation time: 00 hr 05 min 33 sec)
Heartbeat CPU 0 instructions: 80000011 cycles: 25476563 heartbeat IPC: 2.34 cumulative IPC: 2.333 (Simulation time: 00 hr 06 min 28 sec)
Heartbeat CPU 0 instructions: 90000012 cycles: 29764690 heartbeat IPC: 2.332 cumulative IPC: 2.333 (Simulation time: 00 hr 07 min 24 sec)
Heartbeat CPU 0 instructions: 100000012 cycles: 33960063 heartbeat IPC: 2.384 cumulative IPC: 2.343 (Simulation time: 00 hr 08 min 15 sec)
Heartbeat CPU 0 instructions: 110000015 cycles: 38053472 heartbeat IPC: 2.443 cumulative IPC: 2.359 (Simulation time: 00 hr 08 min 51 sec)
Heartbeat CPU 0 instructions: 120000016 cycles: 50718394 heartbeat IPC: 0.7896 cumulative IPC: 1.837 (Simulation time: 00 hr 10 min 34 sec)
Heartbeat CPU 0 instructions: 130000017 cycles: 54841979 heartbeat IPC: 2.425 cumulative IPC: 1.895 (Simulation time: 00 hr 11 min 23 sec)
Heartbeat CPU 0 instructions: 140000021 cycles: 62072724 heartbeat IPC: 1.383 cumulative IPC: 1.82 (Simulation time: 00 hr 12 min 20 sec)
Simulation finished CPU 0 instructions: 100000000 cycles: 54324760 cumulative IPC: 1.841 (Simulation time: 00 hr 13 min 22 sec)
Simulation complete CPU 0 instructions: 100000000 cycles: 54324760 cumulative IPC: 1.841 (Simulation time: 00 hr 13 min 22 sec)

ChampSim completed all CPUs

=== Simulation ===
CPU 0 runs /home/zevs_gromovergec/Programming/Interview/Sber/Programming_modulating/ChampSim/tracers/625.x264_s-39B.champsimtrace.xz

Region of Interest Statistics

CPU 0 cumulative IPC: 1.841 instructions: 100000000 cycles: 54324760
CPU 0 Branch Prediction Accuracy: 91.33% MPKI: 3.491 Average ROB Occupancy at Mispredict: 77.83
Branch type MPKI
BRANCH_DIRECT_JUMP: 0.0026
BRANCH_INDIRECT: 0.00318
BRANCH_CONDITIONAL: 3.316
BRANCH_DIRECT_CALL: 0.0024
BRANCH_INDIRECT_CALL: 0.06673
BRANCH_RETURN: 0.1004

cpu0->cpu0_STLB TOTAL        ACCESS:      92246 HIT:      89767 MISS:       2479 MSHR_MERGE:          0
cpu0->cpu0_STLB LOAD         ACCESS:      92246 HIT:      89767 MISS:       2479 MSHR_MERGE:          0
cpu0->cpu0_STLB RFO          ACCESS:          0 HIT:          0 MISS:          0 MSHR_MERGE:          0
cpu0->cpu0_STLB PREFETCH     ACCESS:          0 HIT:          0 MISS:          0 MSHR_MERGE:          0
cpu0->cpu0_STLB WRITE        ACCESS:          0 HIT:          0 MISS:          0 MSHR_MERGE:          0
cpu0->cpu0_STLB TRANSLATION  ACCESS:          0 HIT:          0 MISS:          0 MSHR_MERGE:          0
cpu0->cpu0_STLB PREFETCH REQUESTED:          0 ISSUED:          0 USEFUL:          0 USELESS:          0
cpu0->cpu0_STLB AVERAGE MISS LATENCY: 743.9 cycles
cpu0->cpu0_L2C TOTAL        ACCESS:     847605 HIT:     619590 MISS:     228015 MSHR_MERGE:          0
cpu0->cpu0_L2C LOAD         ACCESS:     643134 HIT:     489771 MISS:     153363 MSHR_MERGE:          0
cpu0->cpu0_L2C RFO          ACCESS:      86003 HIT:      14875 MISS:      71128 MSHR_MERGE:          0
cpu0->cpu0_L2C PREFETCH     ACCESS:          0 HIT:          0 MISS:          0 MSHR_MERGE:          0
cpu0->cpu0_L2C WRITE        ACCESS:     114942 HIT:     114905 MISS:         37 MSHR_MERGE:          0
cpu0->cpu0_L2C TRANSLATION  ACCESS:       3526 HIT:         39 MISS:       3487 MSHR_MERGE:          0
cpu0->cpu0_L2C PREFETCH REQUESTED:          0 ISSUED:          0 USEFUL:          0 USELESS:          0
cpu0->cpu0_L2C AVERAGE MISS LATENCY: 206.4 cycles
cpu0->cpu0_L1I TOTAL        ACCESS:   11187159 HIT:   10447338 MISS:     739821 MSHR_MERGE:     294018
cpu0->cpu0_L1I LOAD         ACCESS:   11187159 HIT:   10447338 MISS:     739821 MSHR_MERGE:     294018
cpu0->cpu0_L1I RFO          ACCESS:          0 HIT:          0 MISS:          0 MSHR_MERGE:          0
cpu0->cpu0_L1I PREFETCH     ACCESS:          0 HIT:          0 MISS:          0 MSHR_MERGE:          0
cpu0->cpu0_L1I WRITE        ACCESS:          0 HIT:          0 MISS:          0 MSHR_MERGE:          0
cpu0->cpu0_L1I TRANSLATION  ACCESS:          0 HIT:          0 MISS:          0 MSHR_MERGE:          0
cpu0->cpu0_L1I PREFETCH REQUESTED:          0 ISSUED:          0 USEFUL:          0 USELESS:          0
cpu0->cpu0_L1I AVERAGE MISS LATENCY: 8.176 cycles
cpu0->cpu0_L1D TOTAL        ACCESS:   21703570 HIT:   20600703 MISS:    1102867 MSHR_MERGE:     816005
cpu0->cpu0_L1D LOAD         ACCESS:   15029963 HIT:   14589121 MISS:     440842 MSHR_MERGE:     243511
cpu0->cpu0_L1D RFO          ACCESS:          0 HIT:          0 MISS:          0 MSHR_MERGE:          0
cpu0->cpu0_L1D PREFETCH     ACCESS:          0 HIT:          0 MISS:          0 MSHR_MERGE:          0
cpu0->cpu0_L1D WRITE        ACCESS:    6668630 HIT:    6010219 MISS:     658411 MSHR_MERGE:     572406
cpu0->cpu0_L1D TRANSLATION  ACCESS:       4977 HIT:       1363 MISS:       3614 MSHR_MERGE:         88
cpu0->cpu0_L1D PREFETCH REQUESTED:          0 ISSUED:          0 USEFUL:          0 USELESS:          0
cpu0->cpu0_L1D AVERAGE MISS LATENCY: 171.3 cycles
cpu0->cpu0_ITLB TOTAL        ACCESS:    9850637 HIT:    9847202 MISS:       3435 MSHR_MERGE:       2414
cpu0->cpu0_ITLB LOAD         ACCESS:    9850637 HIT:    9847202 MISS:       3435 MSHR_MERGE:       2414
cpu0->cpu0_ITLB RFO          ACCESS:          0 HIT:          0 MISS:          0 MSHR_MERGE:          0
cpu0->cpu0_ITLB PREFETCH     ACCESS:          0 HIT:          0 MISS:          0 MSHR_MERGE:          0
cpu0->cpu0_ITLB WRITE        ACCESS:          0 HIT:          0 MISS:          0 MSHR_MERGE:          0
cpu0->cpu0_ITLB TRANSLATION  ACCESS:          0 HIT:          0 MISS:          0 MSHR_MERGE:          0
cpu0->cpu0_ITLB PREFETCH REQUESTED:          0 ISSUED:          0 USEFUL:          0 USELESS:          0
cpu0->cpu0_ITLB AVERAGE MISS LATENCY: 57.25 cycles
cpu0->cpu0_DTLB TOTAL        ACCESS:   20554652 HIT:   20363313 MISS:     191339 MSHR_MERGE:     100114
cpu0->cpu0_DTLB LOAD         ACCESS:   20554652 HIT:   20363313 MISS:     191339 MSHR_MERGE:     100114
cpu0->cpu0_DTLB RFO          ACCESS:          0 HIT:          0 MISS:          0 MSHR_MERGE:          0
cpu0->cpu0_DTLB PREFETCH     ACCESS:          0 HIT:          0 MISS:          0 MSHR_MERGE:          0
cpu0->cpu0_DTLB WRITE        ACCESS:          0 HIT:          0 MISS:          0 MSHR_MERGE:          0
cpu0->cpu0_DTLB TRANSLATION  ACCESS:          0 HIT:          0 MISS:          0 MSHR_MERGE:          0
cpu0->cpu0_DTLB PREFETCH REQUESTED:          0 ISSUED:          0 USEFUL:          0 USELESS:          0
cpu0->cpu0_DTLB AVERAGE MISS LATENCY: 24.66 cycles
cpu0->LLC TOTAL        ACCESS:     320320 HIT:     132442 MISS:     187878 MSHR_MERGE:          0
cpu0->LLC LOAD         ACCESS:     153363 HIT:      39907 MISS:     113456 MSHR_MERGE:          0
cpu0->LLC RFO          ACCESS:      71128 HIT:        398 MISS:      70730 MSHR_MERGE:          0
cpu0->LLC PREFETCH     ACCESS:          0 HIT:          0 MISS:          0 MSHR_MERGE:          0
cpu0->LLC WRITE        ACCESS:      92342 HIT:      92131 MISS:        211 MSHR_MERGE:          0
cpu0->LLC TRANSLATION  ACCESS:       3487 HIT:          6 MISS:       3481 MSHR_MERGE:          0
cpu0->LLC PREFETCH REQUESTED:          0 ISSUED:          0 USEFUL:          0 USELESS:          0
cpu0->LLC AVERAGE MISS LATENCY: 231.3 cycles

DRAM Statistics

Channel 0 RQ ROW_BUFFER_HIT:       3524
  ROW_BUFFER_MISS:     184107
  AVG DBUS CONGESTED CYCLE: 11.02
Channel 0 WQ ROW_BUFFER_HIT:      24047
  ROW_BUFFER_MISS:      67746
  FULL:          0
Channel 0 REFRESHES ISSUED:       4527
