[VMEM] WARNING: physical memory size is smaller than virtual memory size.

*** ChampSim Multicore Out-of-Order Simulator ***
Warmup Instructions: 50000000
Simulation Instructions: 100000000
Number of CPUs: 1
Page size: 4096

Off-chip DRAM Size: 16 GiB Channels: 1 Width: 64-bit Data Rate: 3205 MT/s
*** Reached end of trace: (0, "./tracers/456.hmmer-191B.champsimtrace.xz")
*** Reached end of trace: (0, "./tracers/456.hmmer-191B.champsimtrace.xz")
*** Reached end of trace: (0, "./tracers/456.hmmer-191B.champsimtrace.xz")
*** Reached end of trace: (0, "./tracers/456.hmmer-191B.champsimtrace.xz")
*** Reached end of trace: (0, "./tracers/456.hmmer-191B.champsimtrace.xz")
*** Reached end of trace: (0, "./tracers/456.hmmer-191B.champsimtrace.xz")
*** Reached end of trace: (0, "./tracers/456.hmmer-191B.champsimtrace.xz")
*** Reached end of trace: (0, "./tracers/456.hmmer-191B.champsimtrace.xz")
*** Reached end of trace: (0, "./tracers/456.hmmer-191B.champsimtrace.xz")
*** Reached end of trace: (0, "./tracers/456.hmmer-191B.champsimtrace.xz")
Heartbeat CPU 0 instructions: 10000004 cycles: 2514189 heartbeat IPC: 3.977 cumulative IPC: 3.977 (Simulation time: 00 hr 00 min 54 sec)
*** Reached end of trace: (0, "./tracers/456.hmmer-191B.champsimtrace.xz")
*** Reached end of trace: (0, "./tracers/456.hmmer-191B.champsimtrace.xz")
*** Reached end of trace: (0, "./tracers/456.hmmer-191B.champsimtrace.xz")
*** Reached end of trace: (0, "./tracers/456.hmmer-191B.champsimtrace.xz")
*** Reached end of trace: (0, "./tracers/456.hmmer-191B.champsimtrace.xz")
*** Reached end of trace: (0, "./tracers/456.hmmer-191B.champsimtrace.xz")
*** Reached end of trace: (0, "./tracers/456.hmmer-191B.champsimtrace.xz")
*** Reached end of trace: (0, "./tracers/456.hmmer-191B.champsimtrace.xz")
*** Reached end of trace: (0, "./tracers/456.hmmer-191B.champsimtrace.xz")
*** Reached end of trace: (0, "./tracers/456.hmmer-191B.champsimtrace.xz")
*** Reached end of trace: (0, "./tracers/456.hmmer-191B.champsimtrace.xz")
Heartbeat CPU 0 instructions: 20000006 cycles: 5017515 heartbeat IPC: 3.995 cumulative IPC: 3.986 (Simulation time: 00 hr 01 min 47 sec)
*** Reached end of trace: (0, "./tracers/456.hmmer-191B.champsimtrace.xz")
*** Reached end of trace: (0, "./tracers/456.hmmer-191B.champsimtrace.xz")
*** Reached end of trace: (0, "./tracers/456.hmmer-191B.champsimtrace.xz")
*** Reached end of trace: (0, "./tracers/456.hmmer-191B.champsimtrace.xz")
*** Reached end of trace: (0, "./tracers/456.hmmer-191B.champsimtrace.xz")
*** Reached end of trace: (0, "./tracers/456.hmmer-191B.champsimtrace.xz")
*** Reached end of trace: (0, "./tracers/456.hmmer-191B.champsimtrace.xz")
*** Reached end of trace: (0, "./tracers/456.hmmer-191B.champsimtrace.xz")
*** Reached end of trace: (0, "./tracers/456.hmmer-191B.champsimtrace.xz")
*** Reached end of trace: (0, "./tracers/456.hmmer-191B.champsimtrace.xz")
*** Reached end of trace: (0, "./tracers/456.hmmer-191B.champsimtrace.xz")
Heartbeat CPU 0 instructions: 30000008 cycles: 7520836 heartbeat IPC: 3.995 cumulative IPC: 3.989 (Simulation time: 00 hr 02 min 23 sec)
*** Reached end of trace: (0, "./tracers/456.hmmer-191B.champsimtrace.xz")
*** Reached end of trace: (0, "./tracers/456.hmmer-191B.champsimtrace.xz")
*** Reached end of trace: (0, "./tracers/456.hmmer-191B.champsimtrace.xz")
*** Reached end of trace: (0, "./tracers/456.hmmer-191B.champsimtrace.xz")
*** Reached end of trace: (0, "./tracers/456.hmmer-191B.champsimtrace.xz")
*** Reached end of trace: (0, "./tracers/456.hmmer-191B.champsimtrace.xz")
*** Reached end of trace: (0, "./tracers/456.hmmer-191B.champsimtrace.xz")
*** Reached end of trace: (0, "./tracers/456.hmmer-191B.champsimtrace.xz")
*** Reached end of trace: (0, "./tracers/456.hmmer-191B.champsimtrace.xz")
*** Reached end of trace: (0, "./tracers/456.hmmer-191B.champsimtrace.xz")
*** Reached end of trace: (0, "./tracers/456.hmmer-191B.champsimtrace.xz")
Heartbeat CPU 0 instructions: 40000010 cycles: 10024167 heartbeat IPC: 3.995 cumulative IPC: 3.99 (Simulation time: 00 hr 03 min 11 sec)
*** Reached end of trace: (0, "./tracers/456.hmmer-191B.champsimtrace.xz")
*** Reached end of trace: (0, "./tracers/456.hmmer-191B.champsimtrace.xz")
*** Reached end of trace: (0, "./tracers/456.hmmer-191B.champsimtrace.xz")
*** Reached end of trace: (0, "./tracers/456.hmmer-191B.champsimtrace.xz")
*** Reached end of trace: (0, "./tracers/456.hmmer-191B.champsimtrace.xz")
*** Reached end of trace: (0, "./tracers/456.hmmer-191B.champsimtrace.xz")
*** Reached end of trace: (0, "./tracers/456.hmmer-191B.champsimtrace.xz")
*** Reached end of trace: (0, "./tracers/456.hmmer-191B.champsimtrace.xz")
*** Reached end of trace: (0, "./tracers/456.hmmer-191B.champsimtrace.xz")
*** Reached end of trace: (0, "./tracers/456.hmmer-191B.champsimtrace.xz")
Warmup finished CPU 0 instructions: 50000004 cycles: 12527486 cumulative IPC: 3.991 (Simulation time: 00 hr 04 min 04 sec)
Warmup complete CPU 0 instructions: 50000004 cycles: 12527486 cumulative IPC: 3.991 (Simulation time: 00 hr 04 min 04 sec)
Heartbeat CPU 0 instructions: 50000014 cycles: 12527488 heartbeat IPC: 3.995 cumulative IPC: 5 (Simulation time: 00 hr 04 min 04 sec)
*** Reached end of trace: (0, "./tracers/456.hmmer-191B.champsimtrace.xz")
*** Reached end of trace: (0, "./tracers/456.hmmer-191B.champsimtrace.xz")
*** Reached end of trace: (0, "./tracers/456.hmmer-191B.champsimtrace.xz")
*** Reached end of trace: (0, "./tracers/456.hmmer-191B.champsimtrace.xz")
*** Reached end of trace: (0, "./tracers/456.hmmer-191B.champsimtrace.xz")
*** Reached end of trace: (0, "./tracers/456.hmmer-191B.champsimtrace.xz")
*** Reached end of trace: (0, "./tracers/456.hmmer-191B.champsimtrace.xz")
*** Reached end of trace: (0, "./tracers/456.hmmer-191B.champsimtrace.xz")
*** Reached end of trace: (0, "./tracers/456.hmmer-191B.champsimtrace.xz")
*** Reached end of trace: (0, "./tracers/456.hmmer-191B.champsimtrace.xz")
*** Reached end of trace: (0, "./tracers/456.hmmer-191B.champsimtrace.xz")
Heartbeat CPU 0 instructions: 60000014 cycles: 16989539 heartbeat IPC: 2.241 cumulative IPC: 2.241 (Simulation time: 00 hr 05 min 19 sec)
*** Reached end of trace: (0, "./tracers/456.hmmer-191B.champsimtrace.xz")
*** Reached end of trace: (0, "./tracers/456.hmmer-191B.champsimtrace.xz")
*** Reached end of trace: (0, "./tracers/456.hmmer-191B.champsimtrace.xz")
*** Reached end of trace: (0, "./tracers/456.hmmer-191B.champsimtrace.xz")
*** Reached end of trace: (0, "./tracers/456.hmmer-191B.champsimtrace.xz")
*** Reached end of trace: (0, "./tracers/456.hmmer-191B.champsimtrace.xz")
*** Reached end of trace: (0, "./tracers/456.hmmer-191B.champsimtrace.xz")
*** Reached end of trace: (0, "./tracers/456.hmmer-191B.champsimtrace.xz")
*** Reached end of trace: (0, "./tracers/456.hmmer-191B.champsimtrace.xz")
*** Reached end of trace: (0, "./tracers/456.hmmer-191B.champsimtrace.xz")
*** Reached end of trace: (0, "./tracers/456.hmmer-191B.champsimtrace.xz")
Heartbeat CPU 0 instructions: 70000014 cycles: 21452695 heartbeat IPC: 2.241 cumulative IPC: 2.241 (Simulation time: 00 hr 06 min 30 sec)
*** Reached end of trace: (0, "./tracers/456.hmmer-191B.champsimtrace.xz")
*** Reached end of trace: (0, "./tracers/456.hmmer-191B.champsimtrace.xz")
*** Reached end of trace: (0, "./tracers/456.hmmer-191B.champsimtrace.xz")
*** Reached end of trace: (0, "./tracers/456.hmmer-191B.champsimtrace.xz")
*** Reached end of trace: (0, "./tracers/456.hmmer-191B.champsimtrace.xz")
*** Reached end of trace: (0, "./tracers/456.hmmer-191B.champsimtrace.xz")
*** Reached end of trace: (0, "./tracers/456.hmmer-191B.champsimtrace.xz")
*** Reached end of trace: (0, "./tracers/456.hmmer-191B.champsimtrace.xz")
*** Reached end of trace: (0, "./tracers/456.hmmer-191B.champsimtrace.xz")
*** Reached end of trace: (0, "./tracers/456.hmmer-191B.champsimtrace.xz")
*** Reached end of trace: (0, "./tracers/456.hmmer-191B.champsimtrace.xz")
Heartbeat CPU 0 instructions: 80000016 cycles: 25914972 heartbeat IPC: 2.241 cumulative IPC: 2.241 (Simulation time: 00 hr 07 min 43 sec)
*** Reached end of trace: (0, "./tracers/456.hmmer-191B.champsimtrace.xz")
*** Reached end of trace: (0, "./tracers/456.hmmer-191B.champsimtrace.xz")
*** Reached end of trace: (0, "./tracers/456.hmmer-191B.champsimtrace.xz")
*** Reached end of trace: (0, "./tracers/456.hmmer-191B.champsimtrace.xz")
*** Reached end of trace: (0, "./tracers/456.hmmer-191B.champsimtrace.xz")
*** Reached end of trace: (0, "./tracers/456.hmmer-191B.champsimtrace.xz")
*** Reached end of trace: (0, "./tracers/456.hmmer-191B.champsimtrace.xz")
*** Reached end of trace: (0, "./tracers/456.hmmer-191B.champsimtrace.xz")
*** Reached end of trace: (0, "./tracers/456.hmmer-191B.champsimtrace.xz")
*** Reached end of trace: (0, "./tracers/456.hmmer-191B.champsimtrace.xz")
Heartbeat CPU 0 instructions: 90000016 cycles: 30377824 heartbeat IPC: 2.241 cumulative IPC: 2.241 (Simulation time: 00 hr 08 min 57 sec)
*** Reached end of trace: (0, "./tracers/456.hmmer-191B.champsimtrace.xz")
*** Reached end of trace: (0, "./tracers/456.hmmer-191B.champsimtrace.xz")
*** Reached end of trace: (0, "./tracers/456.hmmer-191B.champsimtrace.xz")
*** Reached end of trace: (0, "./tracers/456.hmmer-191B.champsimtrace.xz")
*** Reached end of trace: (0, "./tracers/456.hmmer-191B.champsimtrace.xz")
*** Reached end of trace: (0, "./tracers/456.hmmer-191B.champsimtrace.xz")
*** Reached end of trace: (0, "./tracers/456.hmmer-191B.champsimtrace.xz")
*** Reached end of trace: (0, "./tracers/456.hmmer-191B.champsimtrace.xz")
*** Reached end of trace: (0, "./tracers/456.hmmer-191B.champsimtrace.xz")
*** Reached end of trace: (0, "./tracers/456.hmmer-191B.champsimtrace.xz")
*** Reached end of trace: (0, "./tracers/456.hmmer-191B.champsimtrace.xz")
Heartbeat CPU 0 instructions: 100000016 cycles: 34840290 heartbeat IPC: 2.241 cumulative IPC: 2.241 (Simulation time: 00 hr 10 min 15 sec)
*** Reached end of trace: (0, "./tracers/456.hmmer-191B.champsimtrace.xz")
*** Reached end of trace: (0, "./tracers/456.hmmer-191B.champsimtrace.xz")
*** Reached end of trace: (0, "./tracers/456.hmmer-191B.champsimtrace.xz")
*** Reached end of trace: (0, "./tracers/456.hmmer-191B.champsimtrace.xz")
*** Reached end of trace: (0, "./tracers/456.hmmer-191B.champsimtrace.xz")
*** Reached end of trace: (0, "./tracers/456.hmmer-191B.champsimtrace.xz")
*** Reached end of trace: (0, "./tracers/456.hmmer-191B.champsimtrace.xz")
*** Reached end of trace: (0, "./tracers/456.hmmer-191B.champsimtrace.xz")
*** Reached end of trace: (0, "./tracers/456.hmmer-191B.champsimtrace.xz")
*** Reached end of trace: (0, "./tracers/456.hmmer-191B.champsimtrace.xz")
*** Reached end of trace: (0, "./tracers/456.hmmer-191B.champsimtrace.xz")
Heartbeat CPU 0 instructions: 110000016 cycles: 39302684 heartbeat IPC: 2.241 cumulative IPC: 2.241 (Simulation time: 00 hr 11 min 31 sec)
*** Reached end of trace: (0, "./tracers/456.hmmer-191B.champsimtrace.xz")
*** Reached end of trace: (0, "./tracers/456.hmmer-191B.champsimtrace.xz")
*** Reached end of trace: (0, "./tracers/456.hmmer-191B.champsimtrace.xz")
*** Reached end of trace: (0, "./tracers/456.hmmer-191B.champsimtrace.xz")
*** Reached end of trace: (0, "./tracers/456.hmmer-191B.champsimtrace.xz")
*** Reached end of trace: (0, "./tracers/456.hmmer-191B.champsimtrace.xz")
*** Reached end of trace: (0, "./tracers/456.hmmer-191B.champsimtrace.xz")
*** Reached end of trace: (0, "./tracers/456.hmmer-191B.champsimtrace.xz")
*** Reached end of trace: (0, "./tracers/456.hmmer-191B.champsimtrace.xz")
*** Reached end of trace: (0, "./tracers/456.hmmer-191B.champsimtrace.xz")
*** Reached end of trace: (0, "./tracers/456.hmmer-191B.champsimtrace.xz")
Heartbeat CPU 0 instructions: 120000017 cycles: 43765897 heartbeat IPC: 2.241 cumulative IPC: 2.241 (Simulation time: 00 hr 12 min 47 sec)
*** Reached end of trace: (0, "./tracers/456.hmmer-191B.champsimtrace.xz")
*** Reached end of trace: (0, "./tracers/456.hmmer-191B.champsimtrace.xz")
*** Reached end of trace: (0, "./tracers/456.hmmer-191B.champsimtrace.xz")
*** Reached end of trace: (0, "./tracers/456.hmmer-191B.champsimtrace.xz")
*** Reached end of trace: (0, "./tracers/456.hmmer-191B.champsimtrace.xz")
*** Reached end of trace: (0, "./tracers/456.hmmer-191B.champsimtrace.xz")
*** Reached end of trace: (0, "./tracers/456.hmmer-191B.champsimtrace.xz")
*** Reached end of trace: (0, "./tracers/456.hmmer-191B.champsimtrace.xz")
*** Reached end of trace: (0, "./tracers/456.hmmer-191B.champsimtrace.xz")
*** Reached end of trace: (0, "./tracers/456.hmmer-191B.champsimtrace.xz")
*** Reached end of trace: (0, "./tracers/456.hmmer-191B.champsimtrace.xz")
Heartbeat CPU 0 instructions: 130000020 cycles: 48227970 heartbeat IPC: 2.241 cumulative IPC: 2.241 (Simulation time: 00 hr 14 min 04 sec)
*** Reached end of trace: (0, "./tracers/456.hmmer-191B.champsimtrace.xz")
*** Reached end of trace: (0, "./tracers/456.hmmer-191B.champsimtrace.xz")
*** Reached end of trace: (0, "./tracers/456.hmmer-191B.champsimtrace.xz")
*** Reached end of trace: (0, "./tracers/456.hmmer-191B.champsimtrace.xz")
*** Reached end of trace: (0, "./tracers/456.hmmer-191B.champsimtrace.xz")
*** Reached end of trace: (0, "./tracers/456.hmmer-191B.champsimtrace.xz")
*** Reached end of trace: (0, "./tracers/456.hmmer-191B.champsimtrace.xz")
*** Reached end of trace: (0, "./tracers/456.hmmer-191B.champsimtrace.xz")
*** Reached end of trace: (0, "./tracers/456.hmmer-191B.champsimtrace.xz")
*** Reached end of trace: (0, "./tracers/456.hmmer-191B.champsimtrace.xz")
Heartbeat CPU 0 instructions: 140000021 cycles: 52690704 heartbeat IPC: 2.241 cumulative IPC: 2.241 (Simulation time: 00 hr 15 min 21 sec)
*** Reached end of trace: (0, "./tracers/456.hmmer-191B.champsimtrace.xz")
*** Reached end of trace: (0, "./tracers/456.hmmer-191B.champsimtrace.xz")
*** Reached end of trace: (0, "./tracers/456.hmmer-191B.champsimtrace.xz")
*** Reached end of trace: (0, "./tracers/456.hmmer-191B.champsimtrace.xz")
*** Reached end of trace: (0, "./tracers/456.hmmer-191B.champsimtrace.xz")
*** Reached end of trace: (0, "./tracers/456.hmmer-191B.champsimtrace.xz")
*** Reached end of trace: (0, "./tracers/456.hmmer-191B.champsimtrace.xz")
*** Reached end of trace: (0, "./tracers/456.hmmer-191B.champsimtrace.xz")
*** Reached end of trace: (0, "./tracers/456.hmmer-191B.champsimtrace.xz")
*** Reached end of trace: (0, "./tracers/456.hmmer-191B.champsimtrace.xz")
*** Reached end of trace: (0, "./tracers/456.hmmer-191B.champsimtrace.xz")
Simulation finished CPU 0 instructions: 100000002 cycles: 44626140 cumulative IPC: 2.241 (Simulation time: 00 hr 16 min 38 sec)
Simulation complete CPU 0 instructions: 100000002 cycles: 44626140 cumulative IPC: 2.241 (Simulation time: 00 hr 16 min 38 sec)

ChampSim completed all CPUs

=== Simulation ===
CPU 0 runs ./tracers/456.hmmer-191B.champsimtrace.xz

Region of Interest Statistics

CPU 0 cumulative IPC: 2.241 instructions: 100000002 cycles: 44626140
CPU 0 Branch Prediction Accuracy: 99.58% MPKI: 0.1799 Average ROB Occupancy at Mispredict: 145.2
Branch type MPKI
BRANCH_DIRECT_JUMP: 0
BRANCH_INDIRECT: 0
BRANCH_CONDITIONAL: 0.1799
BRANCH_DIRECT_CALL: 0
BRANCH_INDIRECT_CALL: 0
BRANCH_RETURN: 0

cpu0->cpu0_STLB TOTAL        ACCESS:       1943 HIT:       1943 MISS:          0 MSHR_MERGE:          0
cpu0->cpu0_STLB LOAD         ACCESS:       1943 HIT:       1943 MISS:          0 MSHR_MERGE:          0
cpu0->cpu0_STLB RFO          ACCESS:          0 HIT:          0 MISS:          0 MSHR_MERGE:          0
cpu0->cpu0_STLB PREFETCH     ACCESS:          0 HIT:          0 MISS:          0 MSHR_MERGE:          0
cpu0->cpu0_STLB WRITE        ACCESS:          0 HIT:          0 MISS:          0 MSHR_MERGE:          0
cpu0->cpu0_STLB TRANSLATION  ACCESS:          0 HIT:          0 MISS:          0 MSHR_MERGE:          0
cpu0->cpu0_STLB PREFETCH REQUESTED:          0 ISSUED:          0 USEFUL:          0 USELESS:          0
cpu0->cpu0_STLB AVERAGE MISS LATENCY: - cycles
cpu0->cpu0_L2C TOTAL        ACCESS:     680225 HIT:     655646 MISS:      24579 MSHR_MERGE:          0
cpu0->cpu0_L2C LOAD         ACCESS:     146670 HIT:     144098 MISS:       2572 MSHR_MERGE:          0
cpu0->cpu0_L2C RFO          ACCESS:     266676 HIT:     255871 MISS:      10805 MSHR_MERGE:          0
cpu0->cpu0_L2C PREFETCH     ACCESS:          0 HIT:          0 MISS:          0 MSHR_MERGE:          0
cpu0->cpu0_L2C WRITE        ACCESS:     266879 HIT:     255677 MISS:      11202 MSHR_MERGE:          0
cpu0->cpu0_L2C TRANSLATION  ACCESS:          0 HIT:          0 MISS:          0 MSHR_MERGE:          0
cpu0->cpu0_L2C PREFETCH REQUESTED:          0 ISSUED:          0 USEFUL:          0 USELESS:          0
cpu0->cpu0_L2C AVERAGE MISS LATENCY: 9.988 cycles
cpu0->cpu0_L1I TOTAL        ACCESS:   18495486 HIT:   18495486 MISS:          0 MSHR_MERGE:          0
cpu0->cpu0_L1I LOAD         ACCESS:   18495486 HIT:   18495486 MISS:          0 MSHR_MERGE:          0
cpu0->cpu0_L1I RFO          ACCESS:          0 HIT:          0 MISS:          0 MSHR_MERGE:          0
cpu0->cpu0_L1I PREFETCH     ACCESS:          0 HIT:          0 MISS:          0 MSHR_MERGE:          0
cpu0->cpu0_L1I WRITE        ACCESS:          0 HIT:          0 MISS:          0 MSHR_MERGE:          0
cpu0->cpu0_L1I TRANSLATION  ACCESS:          0 HIT:          0 MISS:          0 MSHR_MERGE:          0
cpu0->cpu0_L1I PREFETCH REQUESTED:          0 ISSUED:          0 USEFUL:          0 USELESS:          0
cpu0->cpu0_L1I AVERAGE MISS LATENCY: - cycles
cpu0->cpu0_L1D TOTAL        ACCESS:   40941538 HIT:   40106705 MISS:     834833 MSHR_MERGE:     421487
cpu0->cpu0_L1D LOAD         ACCESS:   29279876 HIT:   29100790 MISS:     179086 MSHR_MERGE:      32416
cpu0->cpu0_L1D RFO          ACCESS:          0 HIT:          0 MISS:          0 MSHR_MERGE:          0
cpu0->cpu0_L1D PREFETCH     ACCESS:          0 HIT:          0 MISS:          0 MSHR_MERGE:          0
cpu0->cpu0_L1D WRITE        ACCESS:   11661662 HIT:   11005915 MISS:     655747 MSHR_MERGE:     389071
cpu0->cpu0_L1D TRANSLATION  ACCESS:          0 HIT:          0 MISS:          0 MSHR_MERGE:          0
cpu0->cpu0_L1D PREFETCH REQUESTED:          0 ISSUED:          0 USEFUL:          0 USELESS:          0
cpu0->cpu0_L1D AVERAGE MISS LATENCY: 8.545 cycles
cpu0->cpu0_ITLB TOTAL        ACCESS:   16372507 HIT:   16372507 MISS:          0 MSHR_MERGE:          0
cpu0->cpu0_ITLB LOAD         ACCESS:   16372507 HIT:   16372507 MISS:          0 MSHR_MERGE:          0
cpu0->cpu0_ITLB RFO          ACCESS:          0 HIT:          0 MISS:          0 MSHR_MERGE:          0
cpu0->cpu0_ITLB PREFETCH     ACCESS:          0 HIT:          0 MISS:          0 MSHR_MERGE:          0
cpu0->cpu0_ITLB WRITE        ACCESS:          0 HIT:          0 MISS:          0 MSHR_MERGE:          0
cpu0->cpu0_ITLB TRANSLATION  ACCESS:          0 HIT:          0 MISS:          0 MSHR_MERGE:          0
cpu0->cpu0_ITLB PREFETCH REQUESTED:          0 ISSUED:          0 USEFUL:          0 USELESS:          0
cpu0->cpu0_ITLB AVERAGE MISS LATENCY: - cycles
cpu0->cpu0_DTLB TOTAL        ACCESS:   39215091 HIT:   39211582 MISS:       3509 MSHR_MERGE:       1566
cpu0->cpu0_DTLB LOAD         ACCESS:   39215091 HIT:   39211582 MISS:       3509 MSHR_MERGE:       1566
cpu0->cpu0_DTLB RFO          ACCESS:          0 HIT:          0 MISS:          0 MSHR_MERGE:          0
cpu0->cpu0_DTLB PREFETCH     ACCESS:          0 HIT:          0 MISS:          0 MSHR_MERGE:          0
cpu0->cpu0_DTLB WRITE        ACCESS:          0 HIT:          0 MISS:          0 MSHR_MERGE:          0
cpu0->cpu0_DTLB TRANSLATION  ACCESS:          0 HIT:          0 MISS:          0 MSHR_MERGE:          0
cpu0->cpu0_DTLB PREFETCH REQUESTED:          0 ISSUED:          0 USEFUL:          0 USELESS:          0
cpu0->cpu0_DTLB AVERAGE MISS LATENCY: 5.002 cycles
cpu0->LLC TOTAL        ACCESS:      25444 HIT:      25444 MISS:          0 MSHR_MERGE:          0
cpu0->LLC LOAD         ACCESS:       2572 HIT:       2572 MISS:          0 MSHR_MERGE:          0
cpu0->LLC RFO          ACCESS:      10805 HIT:      10805 MISS:          0 MSHR_MERGE:          0
cpu0->LLC PREFETCH     ACCESS:          0 HIT:          0 MISS:          0 MSHR_MERGE:          0
cpu0->LLC WRITE        ACCESS:      12067 HIT:      12067 MISS:          0 MSHR_MERGE:          0
cpu0->LLC TRANSLATION  ACCESS:          0 HIT:          0 MISS:          0 MSHR_MERGE:          0
cpu0->LLC PREFETCH REQUESTED:          0 ISSUED:          0 USEFUL:          0 USELESS:          0
cpu0->LLC AVERAGE MISS LATENCY: - cycles

DRAM Statistics

Channel 0 RQ ROW_BUFFER_HIT:          0
  ROW_BUFFER_MISS:          0
  AVG DBUS CONGESTED CYCLE: -
Channel 0 WQ ROW_BUFFER_HIT:          0
  ROW_BUFFER_MISS:          0
  FULL:          0
Channel 0 REFRESHES ISSUED:       3719
