[VMEM] WARNING: physical memory size is smaller than virtual memory size.

*** ChampSim Multicore Out-of-Order Simulator ***
Warmup Instructions: 50000000
Simulation Instructions: 100000000
Number of CPUs: 1
Page size: 4096

Off-chip DRAM Size: 16 GiB Channels: 1 Width: 64-bit Data Rate: 3205 MT/s
Heartbeat CPU 0 instructions: 10000000 cycles: 2558357 heartbeat IPC: 3.909 cumulative IPC: 3.909 (Simulation time: 00 hr 00 min 55 sec)
Heartbeat CPU 0 instructions: 20000002 cycles: 5147765 heartbeat IPC: 3.862 cumulative IPC: 3.885 (Simulation time: 00 hr 01 min 51 sec)
Heartbeat CPU 0 instructions: 30000004 cycles: 7661716 heartbeat IPC: 3.978 cumulative IPC: 3.916 (Simulation time: 00 hr 02 min 46 sec)
Heartbeat CPU 0 instructions: 40000005 cycles: 10177049 heartbeat IPC: 3.976 cumulative IPC: 3.93 (Simulation time: 00 hr 03 min 42 sec)
Warmup finished CPU 0 instructions: 50000000 cycles: 12680815 cumulative IPC: 3.943 (Simulation time: 00 hr 04 min 37 sec)
Warmup complete CPU 0 instructions: 50000000 cycles: 12680815 cumulative IPC: 3.943 (Simulation time: 00 hr 04 min 37 sec)
Heartbeat CPU 0 instructions: 50000005 cycles: 12680816 heartbeat IPC: 3.994 cumulative IPC: 5 (Simulation time: 00 hr 04 min 37 sec)
Heartbeat CPU 0 instructions: 60000009 cycles: 17388807 heartbeat IPC: 2.124 cumulative IPC: 2.124 (Simulation time: 00 hr 05 min 55 sec)
Heartbeat CPU 0 instructions: 70000010 cycles: 22421837 heartbeat IPC: 1.987 cumulative IPC: 2.053 (Simulation time: 00 hr 06 min 48 sec)
Heartbeat CPU 0 instructions: 80000014 cycles: 27452264 heartbeat IPC: 1.988 cumulative IPC: 2.031 (Simulation time: 00 hr 07 min 39 sec)
Heartbeat CPU 0 instructions: 90000014 cycles: 32550949 heartbeat IPC: 1.961 cumulative IPC: 2.013 (Simulation time: 00 hr 08 min 28 sec)
Heartbeat CPU 0 instructions: 100000015 cycles: 37584369 heartbeat IPC: 1.987 cumulative IPC: 2.008 (Simulation time: 00 hr 09 min 18 sec)
Heartbeat CPU 0 instructions: 110000015 cycles: 42616464 heartbeat IPC: 1.987 cumulative IPC: 2.004 (Simulation time: 00 hr 10 min 22 sec)
Heartbeat CPU 0 instructions: 120000018 cycles: 47656879 heartbeat IPC: 1.984 cumulative IPC: 2.001 (Simulation time: 00 hr 11 min 21 sec)
Heartbeat CPU 0 instructions: 130000018 cycles: 52687691 heartbeat IPC: 1.988 cumulative IPC: 2 (Simulation time: 00 hr 12 min 10 sec)
Heartbeat CPU 0 instructions: 140000018 cycles: 57745835 heartbeat IPC: 1.977 cumulative IPC: 1.997 (Simulation time: 00 hr 13 min 00 sec)
Simulation finished CPU 0 instructions: 100000002 cycles: 50101996 cumulative IPC: 1.996 (Simulation time: 00 hr 13 min 49 sec)
Simulation complete CPU 0 instructions: 100000002 cycles: 50101996 cumulative IPC: 1.996 (Simulation time: 00 hr 13 min 49 sec)

ChampSim completed all CPUs

=== Simulation ===
CPU 0 runs /home/zevs_gromovergec/Programming/Interview/Sber/Programming_modulating/ChampSim/tracers/456.hmmer-327B.champsimtrace.xz

Region of Interest Statistics

CPU 0 cumulative IPC: 1.996 instructions: 100000002 cycles: 50101996
CPU 0 Branch Prediction Accuracy: 99.38% MPKI: 0.2744 Average ROB Occupancy at Mispredict: 106.4
Branch type MPKI
BRANCH_DIRECT_JUMP: 2e-05
BRANCH_INDIRECT: 0.00042
BRANCH_CONDITIONAL: 0.2738
BRANCH_DIRECT_CALL: 4e-05
BRANCH_INDIRECT_CALL: 0.0001
BRANCH_RETURN: 5e-05

cpu0->cpu0_STLB TOTAL        ACCESS:       6570 HIT:       6436 MISS:        134 MSHR_MERGE:          0
cpu0->cpu0_STLB LOAD         ACCESS:       6570 HIT:       6436 MISS:        134 MSHR_MERGE:          0
cpu0->cpu0_STLB RFO          ACCESS:          0 HIT:          0 MISS:          0 MSHR_MERGE:          0
cpu0->cpu0_STLB PREFETCH     ACCESS:          0 HIT:          0 MISS:          0 MSHR_MERGE:          0
cpu0->cpu0_STLB WRITE        ACCESS:          0 HIT:          0 MISS:          0 MSHR_MERGE:          0
cpu0->cpu0_STLB TRANSLATION  ACCESS:          0 HIT:          0 MISS:          0 MSHR_MERGE:          0
cpu0->cpu0_STLB PREFETCH REQUESTED:          0 ISSUED:          0 USEFUL:          0 USELESS:          0
cpu0->cpu0_STLB AVERAGE MISS LATENCY: 676.7 cycles
cpu0->cpu0_L2C TOTAL        ACCESS:     681267 HIT:     272799 MISS:     408468 MSHR_MERGE:          0
cpu0->cpu0_L2C LOAD         ACCESS:     147632 HIT:     137853 MISS:       9779 MSHR_MERGE:          0
cpu0->cpu0_L2C RFO          ACCESS:     266400 HIT:       1377 MISS:     265023 MSHR_MERGE:          0
cpu0->cpu0_L2C PREFETCH     ACCESS:          0 HIT:          0 MISS:          0 MSHR_MERGE:          0
cpu0->cpu0_L2C WRITE        ACCESS:     267065 HIT:     133563 MISS:     133502 MSHR_MERGE:          0
cpu0->cpu0_L2C TRANSLATION  ACCESS:        170 HIT:          6 MISS:        164 MSHR_MERGE:          0
cpu0->cpu0_L2C PREFETCH REQUESTED:          0 ISSUED:          0 USEFUL:          0 USELESS:          0
cpu0->cpu0_L2C AVERAGE MISS LATENCY: 49.07 cycles
cpu0->cpu0_L1I TOTAL        ACCESS:   19696307 HIT:   19696302 MISS:          5 MSHR_MERGE:          0
cpu0->cpu0_L1I LOAD         ACCESS:   19696307 HIT:   19696302 MISS:          5 MSHR_MERGE:          0
cpu0->cpu0_L1I RFO          ACCESS:          0 HIT:          0 MISS:          0 MSHR_MERGE:          0
cpu0->cpu0_L1I PREFETCH     ACCESS:          0 HIT:          0 MISS:          0 MSHR_MERGE:          0
cpu0->cpu0_L1I WRITE        ACCESS:          0 HIT:          0 MISS:          0 MSHR_MERGE:          0
cpu0->cpu0_L1I TRANSLATION  ACCESS:          0 HIT:          0 MISS:          0 MSHR_MERGE:          0
cpu0->cpu0_L1I PREFETCH REQUESTED:          0 ISSUED:          0 USEFUL:          0 USELESS:          0
cpu0->cpu0_L1I AVERAGE MISS LATENCY: 216.4 cycles
cpu0->cpu0_L1D TOTAL        ACCESS:   44458138 HIT:   42091470 MISS:    2366668 MSHR_MERGE:    1952471
cpu0->cpu0_L1D LOAD         ACCESS:   31488072 HIT:   31334598 MISS:     153474 MSHR_MERGE:       5847
cpu0->cpu0_L1D RFO          ACCESS:          0 HIT:          0 MISS:          0 MSHR_MERGE:          0
cpu0->cpu0_L1D PREFETCH     ACCESS:          0 HIT:          0 MISS:          0 MSHR_MERGE:          0
cpu0->cpu0_L1D WRITE        ACCESS:   12969798 HIT:   10756774 MISS:    2213024 MSHR_MERGE:    1946624
cpu0->cpu0_L1D TRANSLATION  ACCESS:        268 HIT:         98 MISS:        170 MSHR_MERGE:          0
cpu0->cpu0_L1D PREFETCH REQUESTED:          0 ISSUED:          0 USEFUL:          0 USELESS:          0
cpu0->cpu0_L1D AVERAGE MISS LATENCY: 55.78 cycles
cpu0->cpu0_ITLB TOTAL        ACCESS:   18173464 HIT:   18173462 MISS:          2 MSHR_MERGE:          1
cpu0->cpu0_ITLB LOAD         ACCESS:   18173464 HIT:   18173462 MISS:          2 MSHR_MERGE:          1
cpu0->cpu0_ITLB RFO          ACCESS:          0 HIT:          0 MISS:          0 MSHR_MERGE:          0
cpu0->cpu0_ITLB PREFETCH     ACCESS:          0 HIT:          0 MISS:          0 MSHR_MERGE:          0
cpu0->cpu0_ITLB WRITE        ACCESS:          0 HIT:          0 MISS:          0 MSHR_MERGE:          0
cpu0->cpu0_ITLB TRANSLATION  ACCESS:          0 HIT:          0 MISS:          0 MSHR_MERGE:          0
cpu0->cpu0_ITLB PREFETCH REQUESTED:          0 ISSUED:          0 USEFUL:          0 USELESS:          0
cpu0->cpu0_ITLB AVERAGE MISS LATENCY: 750 cycles
cpu0->cpu0_DTLB TOTAL        ACCESS:   42334688 HIT:   42323191 MISS:      11497 MSHR_MERGE:       4928
cpu0->cpu0_DTLB LOAD         ACCESS:   42334688 HIT:   42323191 MISS:      11497 MSHR_MERGE:       4928
cpu0->cpu0_DTLB RFO          ACCESS:          0 HIT:          0 MISS:          0 MSHR_MERGE:          0
cpu0->cpu0_DTLB PREFETCH     ACCESS:          0 HIT:          0 MISS:          0 MSHR_MERGE:          0
cpu0->cpu0_DTLB WRITE        ACCESS:          0 HIT:          0 MISS:          0 MSHR_MERGE:          0
cpu0->cpu0_DTLB TRANSLATION  ACCESS:          0 HIT:          0 MISS:          0 MSHR_MERGE:          0
cpu0->cpu0_DTLB PREFETCH REQUESTED:          0 ISSUED:          0 USEFUL:          0 USELESS:          0
cpu0->cpu0_DTLB AVERAGE MISS LATENCY: 18.72 cycles
cpu0->LLC TOTAL        ACCESS:     540367 HIT:     458744 MISS:      81623 MSHR_MERGE:          0
cpu0->LLC LOAD         ACCESS:       9779 HIT:       8947 MISS:        832 MSHR_MERGE:          0
cpu0->LLC RFO          ACCESS:     265023 HIT:     184615 MISS:      80408 MSHR_MERGE:          0
cpu0->LLC PREFETCH     ACCESS:          0 HIT:          0 MISS:          0 MSHR_MERGE:          0
cpu0->LLC WRITE        ACCESS:     265401 HIT:     265177 MISS:        224 MSHR_MERGE:          0
cpu0->LLC TRANSLATION  ACCESS:        164 HIT:          5 MISS:        159 MSHR_MERGE:          0
cpu0->LLC PREFETCH REQUESTED:          0 ISSUED:          0 USEFUL:          0 USELESS:          0
cpu0->LLC AVERAGE MISS LATENCY: 187.4 cycles

DRAM Statistics

Channel 0 RQ ROW_BUFFER_HIT:         21
  ROW_BUFFER_MISS:      81374
  AVG DBUS CONGESTED CYCLE: 6.86
Channel 0 WQ ROW_BUFFER_HIT:       1270
  ROW_BUFFER_MISS:      78386
  FULL:          0
Channel 0 REFRESHES ISSUED:       4175
