[VMEM] WARNING: physical memory size is smaller than virtual memory size.

*** ChampSim Multicore Out-of-Order Simulator ***
Warmup Instructions: 50000000
Simulation Instructions: 100000000
Number of CPUs: 1
Page size: 4096

Initialize SIGNATURE TABLE
ST_SET: 1
ST_WAY: 256
ST_TAG_BIT: 16

Initialize PATTERN TABLE
PT_SET: 512
PT_WAY: 4
SIG_DELTA_BIT: 7
C_SIG_BIT: 4
C_DELTA_BIT: 4

Initialize PREFETCH FILTER
FILTER_SET: 1024
Off-chip DRAM Size: 16 GiB Channels: 1 Width: 64-bit Data Rate: 3205 MT/s
Heartbeat CPU 0 instructions: 10000001 cycles: 2675772 heartbeat IPC: 3.737 cumulative IPC: 3.737 (Simulation time: 00 hr 00 min 50 sec)
Heartbeat CPU 0 instructions: 20000001 cycles: 5356453 heartbeat IPC: 3.73 cumulative IPC: 3.734 (Simulation time: 00 hr 01 min 40 sec)
Heartbeat CPU 0 instructions: 30000004 cycles: 8082355 heartbeat IPC: 3.669 cumulative IPC: 3.712 (Simulation time: 00 hr 02 min 31 sec)
Heartbeat CPU 0 instructions: 40000006 cycles: 10803950 heartbeat IPC: 3.674 cumulative IPC: 3.702 (Simulation time: 00 hr 03 min 21 sec)
Warmup finished CPU 0 instructions: 50000001 cycles: 13518995 cumulative IPC: 3.698 (Simulation time: 00 hr 04 min 12 sec)
Warmup complete CPU 0 instructions: 50000001 cycles: 13518995 cumulative IPC: 3.698 (Simulation time: 00 hr 04 min 12 sec)
Heartbeat CPU 0 instructions: 50000006 cycles: 13518996 heartbeat IPC: 3.683 cumulative IPC: 5 (Simulation time: 00 hr 04 min 12 sec)
Heartbeat CPU 0 instructions: 60000009 cycles: 18225055 heartbeat IPC: 2.125 cumulative IPC: 2.125 (Simulation time: 00 hr 05 min 30 sec)
Heartbeat CPU 0 instructions: 70000011 cycles: 22935820 heartbeat IPC: 2.123 cumulative IPC: 2.124 (Simulation time: 00 hr 06 min 48 sec)
Heartbeat CPU 0 instructions: 80000012 cycles: 27657111 heartbeat IPC: 2.118 cumulative IPC: 2.122 (Simulation time: 00 hr 08 min 05 sec)
Heartbeat CPU 0 instructions: 90000012 cycles: 32970863 heartbeat IPC: 1.882 cumulative IPC: 2.056 (Simulation time: 00 hr 09 min 30 sec)
Heartbeat CPU 0 instructions: 100000015 cycles: 38302338 heartbeat IPC: 1.876 cumulative IPC: 2.017 (Simulation time: 00 hr 10 min 55 sec)
Heartbeat CPU 0 instructions: 110000017 cycles: 43647743 heartbeat IPC: 1.871 cumulative IPC: 1.991 (Simulation time: 00 hr 12 min 20 sec)
Heartbeat CPU 0 instructions: 120000019 cycles: 49094437 heartbeat IPC: 1.836 cumulative IPC: 1.968 (Simulation time: 00 hr 13 min 44 sec)
Heartbeat CPU 0 instructions: 130000021 cycles: 54540285 heartbeat IPC: 1.836 cumulative IPC: 1.95 (Simulation time: 00 hr 15 min 08 sec)
Heartbeat CPU 0 instructions: 140000023 cycles: 59995154 heartbeat IPC: 1.833 cumulative IPC: 1.936 (Simulation time: 00 hr 16 min 32 sec)
Simulation finished CPU 0 instructions: 100000000 cycles: 51855919 cumulative IPC: 1.928 (Simulation time: 00 hr 17 min 45 sec)
Simulation complete CPU 0 instructions: 100000000 cycles: 51855919 cumulative IPC: 1.928 (Simulation time: 00 hr 17 min 45 sec)

ChampSim completed all CPUs

=== Simulation ===
CPU 0 runs /home/zevs_gromovergec/Programming/Interview/Sber/Programming_modulating/ChampSim/tracers/437.leslie3d-273B.champsimtrace.xz

Region of Interest Statistics

CPU 0 cumulative IPC: 1.928 instructions: 100000000 cycles: 51855919
CPU 0 Branch Prediction Accuracy: 99.19% MPKI: 0.1548 Average ROB Occupancy at Mispredict: 336
Branch type MPKI
BRANCH_DIRECT_JUMP: 6e-05
BRANCH_INDIRECT: 0
BRANCH_CONDITIONAL: 0.1547
BRANCH_DIRECT_CALL: 0
BRANCH_INDIRECT_CALL: 0
BRANCH_RETURN: 1e-05

cpu0->cpu0_STLB TOTAL        ACCESS:      14230 HIT:        501 MISS:      13729 MSHR_MERGE:          0
cpu0->cpu0_STLB LOAD         ACCESS:      14230 HIT:        501 MISS:      13729 MSHR_MERGE:          0
cpu0->cpu0_STLB RFO          ACCESS:          0 HIT:          0 MISS:          0 MSHR_MERGE:          0
cpu0->cpu0_STLB PREFETCH     ACCESS:          0 HIT:          0 MISS:          0 MSHR_MERGE:          0
cpu0->cpu0_STLB WRITE        ACCESS:          0 HIT:          0 MISS:          0 MSHR_MERGE:          0
cpu0->cpu0_STLB TRANSLATION  ACCESS:          0 HIT:          0 MISS:          0 MSHR_MERGE:          0
cpu0->cpu0_STLB PREFETCH REQUESTED:          0 ISSUED:          0 USEFUL:          0 USELESS:          0
cpu0->cpu0_STLB AVERAGE MISS LATENCY: 499.9 cycles
cpu0->cpu0_L2C TOTAL        ACCESS:    6888935 HIT:     556213 MISS:    6332722 MSHR_MERGE:       1986
cpu0->cpu0_L2C LOAD         ACCESS:     606422 HIT:     412042 MISS:     194380 MSHR_MERGE:       1572
cpu0->cpu0_L2C RFO          ACCESS:     268538 HIT:       3920 MISS:     264618 MSHR_MERGE:          0
cpu0->cpu0_L2C PREFETCH     ACCESS:    5726201 HIT:      23004 MISS:    5703197 MSHR_MERGE:        414
cpu0->cpu0_L2C WRITE        ACCESS:     271817 HIT:     117214 MISS:     154603 MSHR_MERGE:          0
cpu0->cpu0_L2C TRANSLATION  ACCESS:      15957 HIT:         33 MISS:      15924 MSHR_MERGE:          0
cpu0->cpu0_L2C PREFETCH REQUESTED:    7544470 ISSUED:    5726201 USEFUL:     403880 USELESS:      28212
cpu0->cpu0_L2C AVERAGE MISS LATENCY: 130.4 cycles
cpu0->cpu0_L1I TOTAL        ACCESS:   21298756 HIT:   21298600 MISS:        156 MSHR_MERGE:         68
cpu0->cpu0_L1I LOAD         ACCESS:   21298756 HIT:   21298600 MISS:        156 MSHR_MERGE:         68
cpu0->cpu0_L1I RFO          ACCESS:          0 HIT:          0 MISS:          0 MSHR_MERGE:          0
cpu0->cpu0_L1I PREFETCH     ACCESS:          0 HIT:          0 MISS:          0 MSHR_MERGE:          0
cpu0->cpu0_L1I WRITE        ACCESS:          0 HIT:          0 MISS:          0 MSHR_MERGE:          0
cpu0->cpu0_L1I TRANSLATION  ACCESS:          0 HIT:          0 MISS:          0 MSHR_MERGE:          0
cpu0->cpu0_L1I PREFETCH REQUESTED:          0 ISSUED:          0 USEFUL:          0 USELESS:          0
cpu0->cpu0_L1I AVERAGE MISS LATENCY: 181 cycles
cpu0->cpu0_L1D TOTAL        ACCESS:   35951144 HIT:   33285378 MISS:    2665766 MSHR_MERGE:    1774937
cpu0->cpu0_L1D LOAD         ACCESS:   33707324 HIT:   32917634 MISS:     789690 MSHR_MERGE:     183356
cpu0->cpu0_L1D RFO          ACCESS:          0 HIT:          0 MISS:          0 MSHR_MERGE:          0
cpu0->cpu0_L1D PREFETCH     ACCESS:          0 HIT:          0 MISS:          0 MSHR_MERGE:          0
cpu0->cpu0_L1D WRITE        ACCESS:    2216348 HIT:     356234 MISS:    1860114 MSHR_MERGE:    1591576
cpu0->cpu0_L1D TRANSLATION  ACCESS:      27472 HIT:      11510 MISS:      15962 MSHR_MERGE:          5
cpu0->cpu0_L1D PREFETCH REQUESTED:          0 ISSUED:          0 USEFUL:          0 USELESS:          0
cpu0->cpu0_L1D AVERAGE MISS LATENCY: 100.1 cycles
cpu0->cpu0_ITLB TOTAL        ACCESS:   17751877 HIT:   17751870 MISS:          7 MSHR_MERGE:          5
cpu0->cpu0_ITLB LOAD         ACCESS:   17751877 HIT:   17751870 MISS:          7 MSHR_MERGE:          5
cpu0->cpu0_ITLB RFO          ACCESS:          0 HIT:          0 MISS:          0 MSHR_MERGE:          0
cpu0->cpu0_ITLB PREFETCH     ACCESS:          0 HIT:          0 MISS:          0 MSHR_MERGE:          0
cpu0->cpu0_ITLB WRITE        ACCESS:          0 HIT:          0 MISS:          0 MSHR_MERGE:          0
cpu0->cpu0_ITLB TRANSLATION  ACCESS:          0 HIT:          0 MISS:          0 MSHR_MERGE:          0
cpu0->cpu0_ITLB PREFETCH REQUESTED:          0 ISSUED:          0 USEFUL:          0 USELESS:          0
cpu0->cpu0_ITLB AVERAGE MISS LATENCY: 1238 cycles
cpu0->cpu0_DTLB TOTAL        ACCESS:   34599673 HIT:   34524842 MISS:      74831 MSHR_MERGE:      60603
cpu0->cpu0_DTLB LOAD         ACCESS:   34599673 HIT:   34524842 MISS:      74831 MSHR_MERGE:      60603
cpu0->cpu0_DTLB RFO          ACCESS:          0 HIT:          0 MISS:          0 MSHR_MERGE:          0
cpu0->cpu0_DTLB PREFETCH     ACCESS:          0 HIT:          0 MISS:          0 MSHR_MERGE:          0
cpu0->cpu0_DTLB WRITE        ACCESS:          0 HIT:          0 MISS:          0 MSHR_MERGE:          0
cpu0->cpu0_DTLB TRANSLATION  ACCESS:          0 HIT:          0 MISS:          0 MSHR_MERGE:          0
cpu0->cpu0_DTLB PREFETCH REQUESTED:          0 ISSUED:          0 USEFUL:          0 USELESS:          0
cpu0->cpu0_DTLB AVERAGE MISS LATENCY: 488.1 cycles
cpu0->LLC TOTAL        ACCESS:    6400801 HIT:    4424761 MISS:    1976040 MSHR_MERGE:    1100240
cpu0->LLC LOAD         ACCESS:     192808 HIT:     179446 MISS:      13362 MSHR_MERGE:        604
cpu0->LLC RFO          ACCESS:     264618 HIT:        361 MISS:     264257 MSHR_MERGE:          0
cpu0->LLC PREFETCH     ACCESS:    5662329 HIT:    3979695 MISS:    1682634 MSHR_MERGE:    1099636
cpu0->LLC WRITE        ACCESS:     265122 HIT:     265105 MISS:         17 MSHR_MERGE:          0
cpu0->LLC TRANSLATION  ACCESS:      15924 HIT:        154 MISS:      15770 MSHR_MERGE:          0
cpu0->LLC PREFETCH REQUESTED:          0 ISSUED:          0 USEFUL:          0 USELESS:          0
cpu0->LLC AVERAGE MISS LATENCY: 251.7 cycles

DRAM Statistics

Channel 0 RQ ROW_BUFFER_HIT:       5449
  ROW_BUFFER_MISS:     870332
  AVG DBUS CONGESTED CYCLE: 7.909
Channel 0 WQ ROW_BUFFER_HIT:      59041
  ROW_BUFFER_MISS:     216637
  FULL:          0
Channel 0 REFRESHES ISSUED:       4321
