[VMEM] WARNING: physical memory size is smaller than virtual memory size.

*** ChampSim Multicore Out-of-Order Simulator ***
Warmup Instructions: 50000000
Simulation Instructions: 100000000
Number of CPUs: 1
Page size: 4096

Initialize SIGNATURE TABLE
ST_SET: 1
ST_WAY: 256
ST_TAG_BIT: 16

Initialize PATTERN TABLE
PT_SET: 512
PT_WAY: 4
SIG_DELTA_BIT: 7
C_SIG_BIT: 4
C_DELTA_BIT: 4

Initialize PREFETCH FILTER
FILTER_SET: 1024
Off-chip DRAM Size: 16 GiB Channels: 1 Width: 64-bit Data Rate: 3205 MT/s
Heartbeat CPU 0 instructions: 10000000 cycles: 2560107 heartbeat IPC: 3.906 cumulative IPC: 3.906 (Simulation time: 00 hr 00 min 34 sec)
Heartbeat CPU 0 instructions: 20000003 cycles: 5072406 heartbeat IPC: 3.98 cumulative IPC: 3.943 (Simulation time: 00 hr 01 min 18 sec)
Heartbeat CPU 0 instructions: 30000003 cycles: 7589650 heartbeat IPC: 3.973 cumulative IPC: 3.953 (Simulation time: 00 hr 02 min 03 sec)
Heartbeat CPU 0 instructions: 40000006 cycles: 10101545 heartbeat IPC: 3.981 cumulative IPC: 3.96 (Simulation time: 00 hr 02 min 48 sec)
Warmup finished CPU 0 instructions: 50000000 cycles: 12615840 cumulative IPC: 3.963 (Simulation time: 00 hr 03 min 34 sec)
Warmup complete CPU 0 instructions: 50000000 cycles: 12615840 cumulative IPC: 3.963 (Simulation time: 00 hr 03 min 34 sec)
Heartbeat CPU 0 instructions: 50000008 cycles: 12615842 heartbeat IPC: 3.977 cumulative IPC: 4 (Simulation time: 00 hr 03 min 34 sec)
Heartbeat CPU 0 instructions: 60000008 cycles: 16757618 heartbeat IPC: 2.414 cumulative IPC: 2.414 (Simulation time: 00 hr 04 min 28 sec)
Heartbeat CPU 0 instructions: 70000010 cycles: 20921998 heartbeat IPC: 2.401 cumulative IPC: 2.408 (Simulation time: 00 hr 05 min 21 sec)
Heartbeat CPU 0 instructions: 80000011 cycles: 25084723 heartbeat IPC: 2.402 cumulative IPC: 2.406 (Simulation time: 00 hr 06 min 16 sec)
Heartbeat CPU 0 instructions: 90000012 cycles: 29201496 heartbeat IPC: 2.429 cumulative IPC: 2.412 (Simulation time: 00 hr 07 min 09 sec)
Heartbeat CPU 0 instructions: 100000012 cycles: 33261724 heartbeat IPC: 2.463 cumulative IPC: 2.422 (Simulation time: 00 hr 08 min 01 sec)
Heartbeat CPU 0 instructions: 110000015 cycles: 37256080 heartbeat IPC: 2.504 cumulative IPC: 2.435 (Simulation time: 00 hr 08 min 55 sec)
Heartbeat CPU 0 instructions: 120000016 cycles: 44466926 heartbeat IPC: 1.387 cumulative IPC: 2.198 (Simulation time: 00 hr 10 min 20 sec)
Heartbeat CPU 0 instructions: 130000017 cycles: 47742846 heartbeat IPC: 3.053 cumulative IPC: 2.277 (Simulation time: 00 hr 11 min 13 sec)
Heartbeat CPU 0 instructions: 140000021 cycles: 52093787 heartbeat IPC: 2.298 cumulative IPC: 2.28 (Simulation time: 00 hr 12 min 11 sec)
Simulation finished CPU 0 instructions: 100000000 cycles: 44118932 cumulative IPC: 2.267 (Simulation time: 00 hr 13 min 11 sec)
Simulation complete CPU 0 instructions: 100000000 cycles: 44118932 cumulative IPC: 2.267 (Simulation time: 00 hr 13 min 11 sec)

ChampSim completed all CPUs

=== Simulation ===
CPU 0 runs /home/zevs_gromovergec/Programming/Interview/Sber/Programming_modulating/ChampSim/tracers/625.x264_s-39B.champsimtrace.xz

Region of Interest Statistics

CPU 0 cumulative IPC: 2.267 instructions: 100000000 cycles: 44118932
CPU 0 Branch Prediction Accuracy: 91.33% MPKI: 3.491 Average ROB Occupancy at Mispredict: 77.55
Branch type MPKI
BRANCH_DIRECT_JUMP: 0.0026
BRANCH_INDIRECT: 0.00318
BRANCH_CONDITIONAL: 3.316
BRANCH_DIRECT_CALL: 0.0024
BRANCH_INDIRECT_CALL: 0.06673
BRANCH_RETURN: 0.1004

cpu0->cpu0_STLB TOTAL        ACCESS:      92249 HIT:      89770 MISS:       2479 MSHR_MERGE:          0
cpu0->cpu0_STLB LOAD         ACCESS:      92249 HIT:      89770 MISS:       2479 MSHR_MERGE:          0
cpu0->cpu0_STLB RFO          ACCESS:          0 HIT:          0 MISS:          0 MSHR_MERGE:          0
cpu0->cpu0_STLB PREFETCH     ACCESS:          0 HIT:          0 MISS:          0 MSHR_MERGE:          0
cpu0->cpu0_STLB WRITE        ACCESS:          0 HIT:          0 MISS:          0 MSHR_MERGE:          0
cpu0->cpu0_STLB TRANSLATION  ACCESS:          0 HIT:          0 MISS:          0 MSHR_MERGE:          0
cpu0->cpu0_STLB PREFETCH REQUESTED:          0 ISSUED:          0 USEFUL:          0 USELESS:          0
cpu0->cpu0_STLB AVERAGE MISS LATENCY: 762.2 cycles
cpu0->cpu0_L2C TOTAL        ACCESS:    2515286 HIT:    1198751 MISS:    1316535 MSHR_MERGE:      61497
cpu0->cpu0_L2C LOAD         ACCESS:     643085 HIT:     501775 MISS:     141310 MSHR_MERGE:       7422
cpu0->cpu0_L2C RFO          ACCESS:      85987 HIT:      13525 MISS:      72462 MSHR_MERGE:          9
cpu0->cpu0_L2C PREFETCH     ACCESS:    1667760 HIT:     646762 MISS:    1020998 MSHR_MERGE:      54066
cpu0->cpu0_L2C WRITE        ACCESS:     114927 HIT:      36687 MISS:      78240 MSHR_MERGE:          0
cpu0->cpu0_L2C TRANSLATION  ACCESS:       3527 HIT:          2 MISS:       3525 MSHR_MERGE:          0
cpu0->cpu0_L2C PREFETCH REQUESTED:    2409897 ISSUED:    1667758 USEFUL:      49578 USELESS:       1693
cpu0->cpu0_L2C AVERAGE MISS LATENCY: 103.8 cycles
cpu0->cpu0_L1I TOTAL        ACCESS:   11169206 HIT:   10430029 MISS:     739177 MSHR_MERGE:     293360
cpu0->cpu0_L1I LOAD         ACCESS:   11169206 HIT:   10430029 MISS:     739177 MSHR_MERGE:     293360
cpu0->cpu0_L1I RFO          ACCESS:          0 HIT:          0 MISS:          0 MSHR_MERGE:          0
cpu0->cpu0_L1I PREFETCH     ACCESS:          0 HIT:          0 MISS:          0 MSHR_MERGE:          0
cpu0->cpu0_L1I WRITE        ACCESS:          0 HIT:          0 MISS:          0 MSHR_MERGE:          0
cpu0->cpu0_L1I TRANSLATION  ACCESS:          0 HIT:          0 MISS:          0 MSHR_MERGE:          0
cpu0->cpu0_L1I PREFETCH REQUESTED:          0 ISSUED:          0 USEFUL:          0 USELESS:          0
cpu0->cpu0_L1I AVERAGE MISS LATENCY: 8.256 cycles
cpu0->cpu0_L1D TOTAL        ACCESS:   21702269 HIT:   20527309 MISS:    1174960 MSHR_MERGE:     888173
cpu0->cpu0_L1D LOAD         ACCESS:   15028683 HIT:   14586567 MISS:     442116 MSHR_MERGE:     244848
cpu0->cpu0_L1D RFO          ACCESS:          0 HIT:          0 MISS:          0 MSHR_MERGE:          0
cpu0->cpu0_L1D PREFETCH     ACCESS:          0 HIT:          0 MISS:          0 MSHR_MERGE:          0
cpu0->cpu0_L1D WRITE        ACCESS:    6668609 HIT:    5939382 MISS:     729227 MSHR_MERGE:     643235
cpu0->cpu0_L1D TRANSLATION  ACCESS:       4977 HIT:       1360 MISS:       3617 MSHR_MERGE:         90
cpu0->cpu0_L1D PREFETCH REQUESTED:          0 ISSUED:          0 USEFUL:          0 USELESS:          0
cpu0->cpu0_L1D AVERAGE MISS LATENCY: 113.1 cycles
cpu0->cpu0_ITLB TOTAL        ACCESS:    9830319 HIT:    9826901 MISS:       3418 MSHR_MERGE:       2397
cpu0->cpu0_ITLB LOAD         ACCESS:    9830319 HIT:    9826901 MISS:       3418 MSHR_MERGE:       2397
cpu0->cpu0_ITLB RFO          ACCESS:          0 HIT:          0 MISS:          0 MSHR_MERGE:          0
cpu0->cpu0_ITLB PREFETCH     ACCESS:          0 HIT:          0 MISS:          0 MSHR_MERGE:          0
cpu0->cpu0_ITLB WRITE        ACCESS:          0 HIT:          0 MISS:          0 MSHR_MERGE:          0
cpu0->cpu0_ITLB TRANSLATION  ACCESS:          0 HIT:          0 MISS:          0 MSHR_MERGE:          0
cpu0->cpu0_ITLB PREFETCH REQUESTED:          0 ISSUED:          0 USEFUL:          0 USELESS:          0
cpu0->cpu0_ITLB AVERAGE MISS LATENCY: 59.48 cycles
cpu0->cpu0_DTLB TOTAL        ACCESS:   20548056 HIT:   20356127 MISS:     191929 MSHR_MERGE:     100701
cpu0->cpu0_DTLB LOAD         ACCESS:   20548056 HIT:   20356127 MISS:     191929 MSHR_MERGE:     100701
cpu0->cpu0_DTLB RFO          ACCESS:          0 HIT:          0 MISS:          0 MSHR_MERGE:          0
cpu0->cpu0_DTLB PREFETCH     ACCESS:          0 HIT:          0 MISS:          0 MSHR_MERGE:          0
cpu0->cpu0_DTLB WRITE        ACCESS:          0 HIT:          0 MISS:          0 MSHR_MERGE:          0
cpu0->cpu0_DTLB TRANSLATION  ACCESS:          0 HIT:          0 MISS:          0 MSHR_MERGE:          0
cpu0->cpu0_DTLB PREFETCH REQUESTED:          0 ISSUED:          0 USEFUL:          0 USELESS:          0
cpu0->cpu0_DTLB AVERAGE MISS LATENCY: 25.13 cycles
cpu0->LLC TOTAL        ACCESS:    1266128 HIT:     810077 MISS:     456051 MSHR_MERGE:     261684
cpu0->LLC LOAD         ACCESS:     133888 HIT:     102199 MISS:      31689 MSHR_MERGE:      14811
cpu0->LLC RFO          ACCESS:      72452 HIT:       3055 MISS:      69397 MSHR_MERGE:        410
cpu0->LLC PREFETCH     ACCESS:     959673 HIT:     608770 MISS:     350903 MSHR_MERGE:     246463
cpu0->LLC WRITE        ACCESS:      96590 HIT:      96012 MISS:        578 MSHR_MERGE:          0
cpu0->LLC TRANSLATION  ACCESS:       3525 HIT:         41 MISS:       3484 MSHR_MERGE:          0
cpu0->LLC PREFETCH REQUESTED:          0 ISSUED:          0 USEFUL:          0 USELESS:          0
cpu0->LLC AVERAGE MISS LATENCY: 247.3 cycles

DRAM Statistics

Channel 0 RQ ROW_BUFFER_HIT:       5617
  ROW_BUFFER_MISS:     188121
  AVG DBUS CONGESTED CYCLE: 8.547
Channel 0 WQ ROW_BUFFER_HIT:      14044
  ROW_BUFFER_MISS:      78228
  FULL:          0
Channel 0 REFRESHES ISSUED:       3676
