[VMEM] WARNING: physical memory size is smaller than virtual memory size.

*** ChampSim Multicore Out-of-Order Simulator ***
Warmup Instructions: 50000000
Simulation Instructions: 100000000
Number of CPUs: 1
Page size: 4096

Off-chip DRAM Size: 16 GiB Channels: 1 Width: 64-bit Data Rate: 3205 MT/s
Heartbeat CPU 0 instructions: 10000001 cycles: 2722379 heartbeat IPC: 3.673 cumulative IPC: 3.673 (Simulation time: 00 hr 00 min 31 sec)
Heartbeat CPU 0 instructions: 20000002 cycles: 5352531 heartbeat IPC: 3.802 cumulative IPC: 3.737 (Simulation time: 00 hr 01 min 01 sec)
Heartbeat CPU 0 instructions: 30000006 cycles: 7991248 heartbeat IPC: 3.79 cumulative IPC: 3.754 (Simulation time: 00 hr 01 min 49 sec)
Heartbeat CPU 0 instructions: 40000010 cycles: 10628839 heartbeat IPC: 3.791 cumulative IPC: 3.763 (Simulation time: 00 hr 02 min 38 sec)
Warmup finished CPU 0 instructions: 50000000 cycles: 13266365 cumulative IPC: 3.769 (Simulation time: 00 hr 03 min 27 sec)
Warmup complete CPU 0 instructions: 50000000 cycles: 13266365 cumulative IPC: 3.769 (Simulation time: 00 hr 03 min 27 sec)
Heartbeat CPU 0 instructions: 50000010 cycles: 13266367 heartbeat IPC: 3.791 cumulative IPC: 5 (Simulation time: 00 hr 03 min 27 sec)
Heartbeat CPU 0 instructions: 60000012 cycles: 32989912 heartbeat IPC: 0.507 cumulative IPC: 0.507 (Simulation time: 00 hr 06 min 41 sec)
Heartbeat CPU 0 instructions: 70000015 cycles: 61159929 heartbeat IPC: 0.355 cumulative IPC: 0.4176 (Simulation time: 00 hr 10 min 59 sec)
Heartbeat CPU 0 instructions: 80000019 cycles: 89347102 heartbeat IPC: 0.3548 cumulative IPC: 0.3943 (Simulation time: 00 hr 15 min 05 sec)
Heartbeat CPU 0 instructions: 90000020 cycles: 117555625 heartbeat IPC: 0.3545 cumulative IPC: 0.3835 (Simulation time: 00 hr 18 min 54 sec)
Heartbeat CPU 0 instructions: 100000020 cycles: 145172565 heartbeat IPC: 0.3621 cumulative IPC: 0.3791 (Simulation time: 00 hr 22 min 40 sec)
Heartbeat CPU 0 instructions: 110000022 cycles: 159543231 heartbeat IPC: 0.6959 cumulative IPC: 0.4102 (Simulation time: 00 hr 24 min 17 sec)
Heartbeat CPU 0 instructions: 120000024 cycles: 168253912 heartbeat IPC: 1.148 cumulative IPC: 0.4516 (Simulation time: 00 hr 25 min 18 sec)
Heartbeat CPU 0 instructions: 130000026 cycles: 177406217 heartbeat IPC: 1.093 cumulative IPC: 0.4874 (Simulation time: 00 hr 26 min 25 sec)
Heartbeat CPU 0 instructions: 140000026 cycles: 186559779 heartbeat IPC: 1.092 cumulative IPC: 0.5194 (Simulation time: 00 hr 27 min 33 sec)
Simulation finished CPU 0 instructions: 100000004 cycles: 182459255 cumulative IPC: 0.5481 (Simulation time: 00 hr 28 min 39 sec)
Simulation complete CPU 0 instructions: 100000004 cycles: 182459255 cumulative IPC: 0.5481 (Simulation time: 00 hr 28 min 39 sec)

ChampSim completed all CPUs

=== Simulation ===
CPU 0 runs ./tracers/437.leslie3d-149B.champsimtrace.xz

Region of Interest Statistics

CPU 0 cumulative IPC: 0.5481 instructions: 100000004 cycles: 182459255
CPU 0 Branch Prediction Accuracy: 99.05% MPKI: 0.353 Average ROB Occupancy at Mispredict: 299.9
Branch type MPKI
BRANCH_DIRECT_JUMP: 0.00026
BRANCH_INDIRECT: 0
BRANCH_CONDITIONAL: 0.3518
BRANCH_DIRECT_CALL: 0.00046
BRANCH_INDIRECT_CALL: 0
BRANCH_RETURN: 0.00043

cpu0->cpu0_STLB TOTAL        ACCESS:      30929 HIT:       4784 MISS:      26145 MSHR_MERGE:          0
cpu0->cpu0_STLB LOAD         ACCESS:      30929 HIT:       4784 MISS:      26145 MSHR_MERGE:          0
cpu0->cpu0_STLB RFO          ACCESS:          0 HIT:          0 MISS:          0 MSHR_MERGE:          0
cpu0->cpu0_STLB PREFETCH     ACCESS:          0 HIT:          0 MISS:          0 MSHR_MERGE:          0
cpu0->cpu0_STLB WRITE        ACCESS:          0 HIT:          0 MISS:          0 MSHR_MERGE:          0
cpu0->cpu0_STLB TRANSLATION  ACCESS:          0 HIT:          0 MISS:          0 MSHR_MERGE:          0
cpu0->cpu0_STLB PREFETCH REQUESTED:          0 ISSUED:          0 USEFUL:          0 USELESS:          0
cpu0->cpu0_STLB AVERAGE MISS LATENCY: 480.5 cycles
cpu0->cpu0_L2C TOTAL        ACCESS:    1630953 HIT:     101163 MISS:    1529790 MSHR_MERGE:          0
cpu0->cpu0_L2C LOAD         ACCESS:     731387 HIT:      13179 MISS:     718208 MSHR_MERGE:          0
cpu0->cpu0_L2C RFO          ACCESS:     356175 HIT:      15800 MISS:     340375 MSHR_MERGE:          0
cpu0->cpu0_L2C PREFETCH     ACCESS:          0 HIT:          0 MISS:          0 MSHR_MERGE:          0
cpu0->cpu0_L2C WRITE        ACCESS:     503376 HIT:      71696 MISS:     431680 MSHR_MERGE:          0
cpu0->cpu0_L2C TRANSLATION  ACCESS:      40015 HIT:        488 MISS:      39527 MSHR_MERGE:          0
cpu0->cpu0_L2C PREFETCH REQUESTED:          0 ISSUED:          0 USEFUL:          0 USELESS:          0
cpu0->cpu0_L2C AVERAGE MISS LATENCY: 156.2 cycles
cpu0->cpu0_L1I TOTAL        ACCESS:   16934612 HIT:   16934127 MISS:        485 MSHR_MERGE:        199
cpu0->cpu0_L1I LOAD         ACCESS:   16934612 HIT:   16934127 MISS:        485 MSHR_MERGE:        199
cpu0->cpu0_L1I RFO          ACCESS:          0 HIT:          0 MISS:          0 MSHR_MERGE:          0
cpu0->cpu0_L1I PREFETCH     ACCESS:          0 HIT:          0 MISS:          0 MSHR_MERGE:          0
cpu0->cpu0_L1I WRITE        ACCESS:          0 HIT:          0 MISS:          0 MSHR_MERGE:          0
cpu0->cpu0_L1I TRANSLATION  ACCESS:          0 HIT:          0 MISS:          0 MSHR_MERGE:          0
cpu0->cpu0_L1I PREFETCH REQUESTED:          0 ISSUED:          0 USEFUL:          0 USELESS:          0
cpu0->cpu0_L1I AVERAGE MISS LATENCY: 229.5 cycles
cpu0->cpu0_L1D TOTAL        ACCESS:   32202304 HIT:   28836983 MISS:    3365321 MSHR_MERGE:    2238029
cpu0->cpu0_L1D LOAD         ACCESS:   27441463 HIT:   25739803 MISS:    1701660 MSHR_MERGE:     970559
cpu0->cpu0_L1D RFO          ACCESS:          0 HIT:          0 MISS:          0 MSHR_MERGE:          0
cpu0->cpu0_L1D PREFETCH     ACCESS:          0 HIT:          0 MISS:          0 MSHR_MERGE:          0
cpu0->cpu0_L1D WRITE        ACCESS:    4708521 HIT:    3084880 MISS:    1623641 MSHR_MERGE:    1267465
cpu0->cpu0_L1D TRANSLATION  ACCESS:      52320 HIT:      12300 MISS:      40020 MSHR_MERGE:          5
cpu0->cpu0_L1D PREFETCH REQUESTED:          0 ISSUED:          0 USEFUL:          0 USELESS:          0
cpu0->cpu0_L1D AVERAGE MISS LATENCY: 219.4 cycles
cpu0->cpu0_ITLB TOTAL        ACCESS:   14433778 HIT:   14433734 MISS:         44 MSHR_MERGE:         29
cpu0->cpu0_ITLB LOAD         ACCESS:   14433778 HIT:   14433734 MISS:         44 MSHR_MERGE:         29
cpu0->cpu0_ITLB RFO          ACCESS:          0 HIT:          0 MISS:          0 MSHR_MERGE:          0
cpu0->cpu0_ITLB PREFETCH     ACCESS:          0 HIT:          0 MISS:          0 MSHR_MERGE:          0
cpu0->cpu0_ITLB WRITE        ACCESS:          0 HIT:          0 MISS:          0 MSHR_MERGE:          0
cpu0->cpu0_ITLB TRANSLATION  ACCESS:          0 HIT:          0 MISS:          0 MSHR_MERGE:          0
cpu0->cpu0_ITLB PREFETCH REQUESTED:          0 ISSUED:          0 USEFUL:          0 USELESS:          0
cpu0->cpu0_ITLB AVERAGE MISS LATENCY: 864.5 cycles
cpu0->cpu0_DTLB TOTAL        ACCESS:   31001923 HIT:   30909185 MISS:      92738 MSHR_MERGE:      61824
cpu0->cpu0_DTLB LOAD         ACCESS:   31001923 HIT:   30909185 MISS:      92738 MSHR_MERGE:      61824
cpu0->cpu0_DTLB RFO          ACCESS:          0 HIT:          0 MISS:          0 MSHR_MERGE:          0
cpu0->cpu0_DTLB PREFETCH     ACCESS:          0 HIT:          0 MISS:          0 MSHR_MERGE:          0
cpu0->cpu0_DTLB WRITE        ACCESS:          0 HIT:          0 MISS:          0 MSHR_MERGE:          0
cpu0->cpu0_DTLB TRANSLATION  ACCESS:          0 HIT:          0 MISS:          0 MSHR_MERGE:          0
cpu0->cpu0_DTLB PREFETCH REQUESTED:          0 ISSUED:          0 USEFUL:          0 USELESS:          0
cpu0->cpu0_DTLB AVERAGE MISS LATENCY: 411.8 cycles
cpu0->LLC TOTAL        ACCESS:    1583041 HIT:     517313 MISS:    1065728 MSHR_MERGE:          0
cpu0->LLC LOAD         ACCESS:     718208 HIT:      19828 MISS:     698380 MSHR_MERGE:          0
cpu0->LLC RFO          ACCESS:     340375 HIT:       3476 MISS:     336899 MSHR_MERGE:          0
cpu0->LLC PREFETCH     ACCESS:          0 HIT:          0 MISS:          0 MSHR_MERGE:          0
cpu0->LLC WRITE        ACCESS:     484931 HIT:     484773 MISS:        158 MSHR_MERGE:          0
cpu0->LLC TRANSLATION  ACCESS:      39527 HIT:       9236 MISS:      30291 MSHR_MERGE:          0
cpu0->LLC PREFETCH REQUESTED:          0 ISSUED:          0 USEFUL:          0 USELESS:          0
cpu0->LLC AVERAGE MISS LATENCY: 206.1 cycles

DRAM Statistics

Channel 0 RQ ROW_BUFFER_HIT:       1779
  ROW_BUFFER_MISS:    1063766
  AVG DBUS CONGESTED CYCLE: 10.64
Channel 0 WQ ROW_BUFFER_HIT:     161764
  ROW_BUFFER_MISS:     312512
  FULL:          0
Channel 0 REFRESHES ISSUED:      15205
