[VMEM] WARNING: physical memory size is smaller than virtual memory size.

*** ChampSim Multicore Out-of-Order Simulator ***
Warmup Instructions: 50000000
Simulation Instructions: 100000000
Number of CPUs: 1
Page size: 4096

Initialize SIGNATURE TABLE
ST_SET: 1
ST_WAY: 256
ST_TAG_BIT: 16

Initialize PATTERN TABLE
PT_SET: 512
PT_WAY: 4
SIG_DELTA_BIT: 7
C_SIG_BIT: 4
C_DELTA_BIT: 4

Initialize PREFETCH FILTER
FILTER_SET: 1024
Off-chip DRAM Size: 16 GiB Channels: 1 Width: 64-bit Data Rate: 3205 MT/s
*** Reached end of trace: (0, "./tracers/456.hmmer-191B.champsimtrace.xz")
*** Reached end of trace: (0, "./tracers/456.hmmer-191B.champsimtrace.xz")
*** Reached end of trace: (0, "./tracers/456.hmmer-191B.champsimtrace.xz")
*** Reached end of trace: (0, "./tracers/456.hmmer-191B.champsimtrace.xz")
*** Reached end of trace: (0, "./tracers/456.hmmer-191B.champsimtrace.xz")
*** Reached end of trace: (0, "./tracers/456.hmmer-191B.champsimtrace.xz")
*** Reached end of trace: (0, "./tracers/456.hmmer-191B.champsimtrace.xz")
*** Reached end of trace: (0, "./tracers/456.hmmer-191B.champsimtrace.xz")
*** Reached end of trace: (0, "./tracers/456.hmmer-191B.champsimtrace.xz")
*** Reached end of trace: (0, "./tracers/456.hmmer-191B.champsimtrace.xz")
Heartbeat CPU 0 instructions: 10000004 cycles: 2514058 heartbeat IPC: 3.978 cumulative IPC: 3.978 (Simulation time: 00 hr 00 min 54 sec)
*** Reached end of trace: (0, "./tracers/456.hmmer-191B.champsimtrace.xz")
*** Reached end of trace: (0, "./tracers/456.hmmer-191B.champsimtrace.xz")
*** Reached end of trace: (0, "./tracers/456.hmmer-191B.champsimtrace.xz")
*** Reached end of trace: (0, "./tracers/456.hmmer-191B.champsimtrace.xz")
*** Reached end of trace: (0, "./tracers/456.hmmer-191B.champsimtrace.xz")
*** Reached end of trace: (0, "./tracers/456.hmmer-191B.champsimtrace.xz")
*** Reached end of trace: (0, "./tracers/456.hmmer-191B.champsimtrace.xz")
*** Reached end of trace: (0, "./tracers/456.hmmer-191B.champsimtrace.xz")
*** Reached end of trace: (0, "./tracers/456.hmmer-191B.champsimtrace.xz")
*** Reached end of trace: (0, "./tracers/456.hmmer-191B.champsimtrace.xz")
*** Reached end of trace: (0, "./tracers/456.hmmer-191B.champsimtrace.xz")
Heartbeat CPU 0 instructions: 20000006 cycles: 5017307 heartbeat IPC: 3.995 cumulative IPC: 3.986 (Simulation time: 00 hr 01 min 49 sec)
*** Reached end of trace: (0, "./tracers/456.hmmer-191B.champsimtrace.xz")
*** Reached end of trace: (0, "./tracers/456.hmmer-191B.champsimtrace.xz")
*** Reached end of trace: (0, "./tracers/456.hmmer-191B.champsimtrace.xz")
*** Reached end of trace: (0, "./tracers/456.hmmer-191B.champsimtrace.xz")
*** Reached end of trace: (0, "./tracers/456.hmmer-191B.champsimtrace.xz")
*** Reached end of trace: (0, "./tracers/456.hmmer-191B.champsimtrace.xz")
*** Reached end of trace: (0, "./tracers/456.hmmer-191B.champsimtrace.xz")
*** Reached end of trace: (0, "./tracers/456.hmmer-191B.champsimtrace.xz")
*** Reached end of trace: (0, "./tracers/456.hmmer-191B.champsimtrace.xz")
*** Reached end of trace: (0, "./tracers/456.hmmer-191B.champsimtrace.xz")
*** Reached end of trace: (0, "./tracers/456.hmmer-191B.champsimtrace.xz")
Heartbeat CPU 0 instructions: 30000008 cycles: 7520551 heartbeat IPC: 3.995 cumulative IPC: 3.989 (Simulation time: 00 hr 02 min 44 sec)
*** Reached end of trace: (0, "./tracers/456.hmmer-191B.champsimtrace.xz")
*** Reached end of trace: (0, "./tracers/456.hmmer-191B.champsimtrace.xz")
*** Reached end of trace: (0, "./tracers/456.hmmer-191B.champsimtrace.xz")
*** Reached end of trace: (0, "./tracers/456.hmmer-191B.champsimtrace.xz")
*** Reached end of trace: (0, "./tracers/456.hmmer-191B.champsimtrace.xz")
*** Reached end of trace: (0, "./tracers/456.hmmer-191B.champsimtrace.xz")
*** Reached end of trace: (0, "./tracers/456.hmmer-191B.champsimtrace.xz")
*** Reached end of trace: (0, "./tracers/456.hmmer-191B.champsimtrace.xz")
*** Reached end of trace: (0, "./tracers/456.hmmer-191B.champsimtrace.xz")
*** Reached end of trace: (0, "./tracers/456.hmmer-191B.champsimtrace.xz")
*** Reached end of trace: (0, "./tracers/456.hmmer-191B.champsimtrace.xz")
Heartbeat CPU 0 instructions: 40000010 cycles: 10023803 heartbeat IPC: 3.995 cumulative IPC: 3.991 (Simulation time: 00 hr 03 min 39 sec)
*** Reached end of trace: (0, "./tracers/456.hmmer-191B.champsimtrace.xz")
*** Reached end of trace: (0, "./tracers/456.hmmer-191B.champsimtrace.xz")
*** Reached end of trace: (0, "./tracers/456.hmmer-191B.champsimtrace.xz")
*** Reached end of trace: (0, "./tracers/456.hmmer-191B.champsimtrace.xz")
*** Reached end of trace: (0, "./tracers/456.hmmer-191B.champsimtrace.xz")
*** Reached end of trace: (0, "./tracers/456.hmmer-191B.champsimtrace.xz")
*** Reached end of trace: (0, "./tracers/456.hmmer-191B.champsimtrace.xz")
*** Reached end of trace: (0, "./tracers/456.hmmer-191B.champsimtrace.xz")
*** Reached end of trace: (0, "./tracers/456.hmmer-191B.champsimtrace.xz")
*** Reached end of trace: (0, "./tracers/456.hmmer-191B.champsimtrace.xz")
Warmup finished CPU 0 instructions: 50000004 cycles: 12527054 cumulative IPC: 3.991 (Simulation time: 00 hr 04 min 32 sec)
Warmup complete CPU 0 instructions: 50000004 cycles: 12527054 cumulative IPC: 3.991 (Simulation time: 00 hr 04 min 32 sec)
Heartbeat CPU 0 instructions: 50000014 cycles: 12527056 heartbeat IPC: 3.995 cumulative IPC: 5 (Simulation time: 00 hr 04 min 32 sec)
*** Reached end of trace: (0, "./tracers/456.hmmer-191B.champsimtrace.xz")
*** Reached end of trace: (0, "./tracers/456.hmmer-191B.champsimtrace.xz")
*** Reached end of trace: (0, "./tracers/456.hmmer-191B.champsimtrace.xz")
*** Reached end of trace: (0, "./tracers/456.hmmer-191B.champsimtrace.xz")
*** Reached end of trace: (0, "./tracers/456.hmmer-191B.champsimtrace.xz")
*** Reached end of trace: (0, "./tracers/456.hmmer-191B.champsimtrace.xz")
*** Reached end of trace: (0, "./tracers/456.hmmer-191B.champsimtrace.xz")
*** Reached end of trace: (0, "./tracers/456.hmmer-191B.champsimtrace.xz")
*** Reached end of trace: (0, "./tracers/456.hmmer-191B.champsimtrace.xz")
*** Reached end of trace: (0, "./tracers/456.hmmer-191B.champsimtrace.xz")
*** Reached end of trace: (0, "./tracers/456.hmmer-191B.champsimtrace.xz")
Heartbeat CPU 0 instructions: 60000014 cycles: 16988761 heartbeat IPC: 2.241 cumulative IPC: 2.241 (Simulation time: 00 hr 05 min 48 sec)
*** Reached end of trace: (0, "./tracers/456.hmmer-191B.champsimtrace.xz")
*** Reached end of trace: (0, "./tracers/456.hmmer-191B.champsimtrace.xz")
*** Reached end of trace: (0, "./tracers/456.hmmer-191B.champsimtrace.xz")
*** Reached end of trace: (0, "./tracers/456.hmmer-191B.champsimtrace.xz")
*** Reached end of trace: (0, "./tracers/456.hmmer-191B.champsimtrace.xz")
*** Reached end of trace: (0, "./tracers/456.hmmer-191B.champsimtrace.xz")
*** Reached end of trace: (0, "./tracers/456.hmmer-191B.champsimtrace.xz")
*** Reached end of trace: (0, "./tracers/456.hmmer-191B.champsimtrace.xz")
*** Reached end of trace: (0, "./tracers/456.hmmer-191B.champsimtrace.xz")
*** Reached end of trace: (0, "./tracers/456.hmmer-191B.champsimtrace.xz")
*** Reached end of trace: (0, "./tracers/456.hmmer-191B.champsimtrace.xz")
Heartbeat CPU 0 instructions: 70000014 cycles: 21451277 heartbeat IPC: 2.241 cumulative IPC: 2.241 (Simulation time: 00 hr 07 min 04 sec)
*** Reached end of trace: (0, "./tracers/456.hmmer-191B.champsimtrace.xz")
*** Reached end of trace: (0, "./tracers/456.hmmer-191B.champsimtrace.xz")
*** Reached end of trace: (0, "./tracers/456.hmmer-191B.champsimtrace.xz")
*** Reached end of trace: (0, "./tracers/456.hmmer-191B.champsimtrace.xz")
*** Reached end of trace: (0, "./tracers/456.hmmer-191B.champsimtrace.xz")
*** Reached end of trace: (0, "./tracers/456.hmmer-191B.champsimtrace.xz")
*** Reached end of trace: (0, "./tracers/456.hmmer-191B.champsimtrace.xz")
*** Reached end of trace: (0, "./tracers/456.hmmer-191B.champsimtrace.xz")
*** Reached end of trace: (0, "./tracers/456.hmmer-191B.champsimtrace.xz")
*** Reached end of trace: (0, "./tracers/456.hmmer-191B.champsimtrace.xz")
*** Reached end of trace: (0, "./tracers/456.hmmer-191B.champsimtrace.xz")
Heartbeat CPU 0 instructions: 80000016 cycles: 25912285 heartbeat IPC: 2.242 cumulative IPC: 2.241 (Simulation time: 00 hr 08 min 17 sec)
*** Reached end of trace: (0, "./tracers/456.hmmer-191B.champsimtrace.xz")
*** Reached end of trace: (0, "./tracers/456.hmmer-191B.champsimtrace.xz")
*** Reached end of trace: (0, "./tracers/456.hmmer-191B.champsimtrace.xz")
*** Reached end of trace: (0, "./tracers/456.hmmer-191B.champsimtrace.xz")
*** Reached end of trace: (0, "./tracers/456.hmmer-191B.champsimtrace.xz")
*** Reached end of trace: (0, "./tracers/456.hmmer-191B.champsimtrace.xz")
*** Reached end of trace: (0, "./tracers/456.hmmer-191B.champsimtrace.xz")
*** Reached end of trace: (0, "./tracers/456.hmmer-191B.champsimtrace.xz")
*** Reached end of trace: (0, "./tracers/456.hmmer-191B.champsimtrace.xz")
*** Reached end of trace: (0, "./tracers/456.hmmer-191B.champsimtrace.xz")
Heartbeat CPU 0 instructions: 90000016 cycles: 30374667 heartbeat IPC: 2.241 cumulative IPC: 2.241 (Simulation time: 00 hr 09 min 26 sec)
*** Reached end of trace: (0, "./tracers/456.hmmer-191B.champsimtrace.xz")
*** Reached end of trace: (0, "./tracers/456.hmmer-191B.champsimtrace.xz")
*** Reached end of trace: (0, "./tracers/456.hmmer-191B.champsimtrace.xz")
*** Reached end of trace: (0, "./tracers/456.hmmer-191B.champsimtrace.xz")
*** Reached end of trace: (0, "./tracers/456.hmmer-191B.champsimtrace.xz")
*** Reached end of trace: (0, "./tracers/456.hmmer-191B.champsimtrace.xz")
*** Reached end of trace: (0, "./tracers/456.hmmer-191B.champsimtrace.xz")
*** Reached end of trace: (0, "./tracers/456.hmmer-191B.champsimtrace.xz")
*** Reached end of trace: (0, "./tracers/456.hmmer-191B.champsimtrace.xz")
*** Reached end of trace: (0, "./tracers/456.hmmer-191B.champsimtrace.xz")
*** Reached end of trace: (0, "./tracers/456.hmmer-191B.champsimtrace.xz")
Heartbeat CPU 0 instructions: 100000016 cycles: 34836032 heartbeat IPC: 2.241 cumulative IPC: 2.241 (Simulation time: 00 hr 10 min 34 sec)
*** Reached end of trace: (0, "./tracers/456.hmmer-191B.champsimtrace.xz")
*** Reached end of trace: (0, "./tracers/456.hmmer-191B.champsimtrace.xz")
*** Reached end of trace: (0, "./tracers/456.hmmer-191B.champsimtrace.xz")
*** Reached end of trace: (0, "./tracers/456.hmmer-191B.champsimtrace.xz")
*** Reached end of trace: (0, "./tracers/456.hmmer-191B.champsimtrace.xz")
*** Reached end of trace: (0, "./tracers/456.hmmer-191B.champsimtrace.xz")
*** Reached end of trace: (0, "./tracers/456.hmmer-191B.champsimtrace.xz")
*** Reached end of trace: (0, "./tracers/456.hmmer-191B.champsimtrace.xz")
*** Reached end of trace: (0, "./tracers/456.hmmer-191B.champsimtrace.xz")
*** Reached end of trace: (0, "./tracers/456.hmmer-191B.champsimtrace.xz")
*** Reached end of trace: (0, "./tracers/456.hmmer-191B.champsimtrace.xz")
Heartbeat CPU 0 instructions: 110000016 cycles: 39298054 heartbeat IPC: 2.241 cumulative IPC: 2.241 (Simulation time: 00 hr 11 min 40 sec)
*** Reached end of trace: (0, "./tracers/456.hmmer-191B.champsimtrace.xz")
*** Reached end of trace: (0, "./tracers/456.hmmer-191B.champsimtrace.xz")
*** Reached end of trace: (0, "./tracers/456.hmmer-191B.champsimtrace.xz")
*** Reached end of trace: (0, "./tracers/456.hmmer-191B.champsimtrace.xz")
*** Reached end of trace: (0, "./tracers/456.hmmer-191B.champsimtrace.xz")
*** Reached end of trace: (0, "./tracers/456.hmmer-191B.champsimtrace.xz")
*** Reached end of trace: (0, "./tracers/456.hmmer-191B.champsimtrace.xz")
*** Reached end of trace: (0, "./tracers/456.hmmer-191B.champsimtrace.xz")
*** Reached end of trace: (0, "./tracers/456.hmmer-191B.champsimtrace.xz")
*** Reached end of trace: (0, "./tracers/456.hmmer-191B.champsimtrace.xz")
*** Reached end of trace: (0, "./tracers/456.hmmer-191B.champsimtrace.xz")
Heartbeat CPU 0 instructions: 120000017 cycles: 43760299 heartbeat IPC: 2.241 cumulative IPC: 2.241 (Simulation time: 00 hr 12 min 45 sec)
*** Reached end of trace: (0, "./tracers/456.hmmer-191B.champsimtrace.xz")
*** Reached end of trace: (0, "./tracers/456.hmmer-191B.champsimtrace.xz")
*** Reached end of trace: (0, "./tracers/456.hmmer-191B.champsimtrace.xz")
*** Reached end of trace: (0, "./tracers/456.hmmer-191B.champsimtrace.xz")
*** Reached end of trace: (0, "./tracers/456.hmmer-191B.champsimtrace.xz")
*** Reached end of trace: (0, "./tracers/456.hmmer-191B.champsimtrace.xz")
*** Reached end of trace: (0, "./tracers/456.hmmer-191B.champsimtrace.xz")
*** Reached end of trace: (0, "./tracers/456.hmmer-191B.champsimtrace.xz")
*** Reached end of trace: (0, "./tracers/456.hmmer-191B.champsimtrace.xz")
*** Reached end of trace: (0, "./tracers/456.hmmer-191B.champsimtrace.xz")
*** Reached end of trace: (0, "./tracers/456.hmmer-191B.champsimtrace.xz")
Heartbeat CPU 0 instructions: 130000020 cycles: 48221793 heartbeat IPC: 2.241 cumulative IPC: 2.241 (Simulation time: 00 hr 13 min 44 sec)
*** Reached end of trace: (0, "./tracers/456.hmmer-191B.champsimtrace.xz")
*** Reached end of trace: (0, "./tracers/456.hmmer-191B.champsimtrace.xz")
*** Reached end of trace: (0, "./tracers/456.hmmer-191B.champsimtrace.xz")
*** Reached end of trace: (0, "./tracers/456.hmmer-191B.champsimtrace.xz")
*** Reached end of trace: (0, "./tracers/456.hmmer-191B.champsimtrace.xz")
*** Reached end of trace: (0, "./tracers/456.hmmer-191B.champsimtrace.xz")
*** Reached end of trace: (0, "./tracers/456.hmmer-191B.champsimtrace.xz")
*** Reached end of trace: (0, "./tracers/456.hmmer-191B.champsimtrace.xz")
*** Reached end of trace: (0, "./tracers/456.hmmer-191B.champsimtrace.xz")
*** Reached end of trace: (0, "./tracers/456.hmmer-191B.champsimtrace.xz")
Heartbeat CPU 0 instructions: 140000021 cycles: 52683713 heartbeat IPC: 2.241 cumulative IPC: 2.241 (Simulation time: 00 hr 14 min 40 sec)
*** Reached end of trace: (0, "./tracers/456.hmmer-191B.champsimtrace.xz")
*** Reached end of trace: (0, "./tracers/456.hmmer-191B.champsimtrace.xz")
*** Reached end of trace: (0, "./tracers/456.hmmer-191B.champsimtrace.xz")
*** Reached end of trace: (0, "./tracers/456.hmmer-191B.champsimtrace.xz")
*** Reached end of trace: (0, "./tracers/456.hmmer-191B.champsimtrace.xz")
*** Reached end of trace: (0, "./tracers/456.hmmer-191B.champsimtrace.xz")
*** Reached end of trace: (0, "./tracers/456.hmmer-191B.champsimtrace.xz")
*** Reached end of trace: (0, "./tracers/456.hmmer-191B.champsimtrace.xz")
*** Reached end of trace: (0, "./tracers/456.hmmer-191B.champsimtrace.xz")
*** Reached end of trace: (0, "./tracers/456.hmmer-191B.champsimtrace.xz")
*** Reached end of trace: (0, "./tracers/456.hmmer-191B.champsimtrace.xz")
Simulation finished CPU 0 instructions: 100000002 cycles: 44618997 cumulative IPC: 2.241 (Simulation time: 00 hr 15 min 36 sec)
Simulation complete CPU 0 instructions: 100000002 cycles: 44618997 cumulative IPC: 2.241 (Simulation time: 00 hr 15 min 36 sec)

ChampSim completed all CPUs

=== Simulation ===
CPU 0 runs ./tracers/456.hmmer-191B.champsimtrace.xz

Region of Interest Statistics

CPU 0 cumulative IPC: 2.241 instructions: 100000002 cycles: 44618997
CPU 0 Branch Prediction Accuracy: 99.58% MPKI: 0.1799 Average ROB Occupancy at Mispredict: 145.2
Branch type MPKI
BRANCH_DIRECT_JUMP: 0
BRANCH_INDIRECT: 0
BRANCH_CONDITIONAL: 0.1799
BRANCH_DIRECT_CALL: 0
BRANCH_INDIRECT_CALL: 0
BRANCH_RETURN: 0

cpu0->cpu0_STLB TOTAL        ACCESS:       1943 HIT:       1943 MISS:          0 MSHR_MERGE:          0
cpu0->cpu0_STLB LOAD         ACCESS:       1943 HIT:       1943 MISS:          0 MSHR_MERGE:          0
cpu0->cpu0_STLB RFO          ACCESS:          0 HIT:          0 MISS:          0 MSHR_MERGE:          0
cpu0->cpu0_STLB PREFETCH     ACCESS:          0 HIT:          0 MISS:          0 MSHR_MERGE:          0
cpu0->cpu0_STLB WRITE        ACCESS:          0 HIT:          0 MISS:          0 MSHR_MERGE:          0
cpu0->cpu0_STLB TRANSLATION  ACCESS:          0 HIT:          0 MISS:          0 MSHR_MERGE:          0
cpu0->cpu0_STLB PREFETCH REQUESTED:          0 ISSUED:          0 USEFUL:          0 USELESS:          0
cpu0->cpu0_STLB AVERAGE MISS LATENCY: - cycles
cpu0->cpu0_L2C TOTAL        ACCESS:    1400016 HIT:    1170648 MISS:     229368 MSHR_MERGE:          0
cpu0->cpu0_L2C LOAD         ACCESS:     146670 HIT:     146670 MISS:          0 MSHR_MERGE:          0
cpu0->cpu0_L2C RFO          ACCESS:     266676 HIT:     266676 MISS:          0 MSHR_MERGE:          0
cpu0->cpu0_L2C PREFETCH     ACCESS:     719791 HIT:     490423 MISS:     229368 MSHR_MERGE:          0
cpu0->cpu0_L2C WRITE        ACCESS:     266879 HIT:     266879 MISS:          0 MSHR_MERGE:          0
cpu0->cpu0_L2C TRANSLATION  ACCESS:          0 HIT:          0 MISS:          0 MSHR_MERGE:          0
cpu0->cpu0_L2C PREFETCH REQUESTED:     739954 ISSUED:     719791 USEFUL:          0 USELESS:          0
cpu0->cpu0_L2C AVERAGE MISS LATENCY: - cycles
cpu0->cpu0_L1I TOTAL        ACCESS:   18496168 HIT:   18496168 MISS:          0 MSHR_MERGE:          0
cpu0->cpu0_L1I LOAD         ACCESS:   18496168 HIT:   18496168 MISS:          0 MSHR_MERGE:          0
cpu0->cpu0_L1I RFO          ACCESS:          0 HIT:          0 MISS:          0 MSHR_MERGE:          0
cpu0->cpu0_L1I PREFETCH     ACCESS:          0 HIT:          0 MISS:          0 MSHR_MERGE:          0
cpu0->cpu0_L1I WRITE        ACCESS:          0 HIT:          0 MISS:          0 MSHR_MERGE:          0
cpu0->cpu0_L1I TRANSLATION  ACCESS:          0 HIT:          0 MISS:          0 MSHR_MERGE:          0
cpu0->cpu0_L1I PREFETCH REQUESTED:          0 ISSUED:          0 USEFUL:          0 USELESS:          0
cpu0->cpu0_L1I AVERAGE MISS LATENCY: - cycles
cpu0->cpu0_L1D TOTAL        ACCESS:   40943765 HIT:   40121612 MISS:     822153 MSHR_MERGE:     408807
cpu0->cpu0_L1D LOAD         ACCESS:   29281658 HIT:   29104279 MISS:     177379 MSHR_MERGE:      30709
cpu0->cpu0_L1D RFO          ACCESS:          0 HIT:          0 MISS:          0 MSHR_MERGE:          0
cpu0->cpu0_L1D PREFETCH     ACCESS:          0 HIT:          0 MISS:          0 MSHR_MERGE:          0
cpu0->cpu0_L1D WRITE        ACCESS:   11662107 HIT:   11017333 MISS:     644774 MSHR_MERGE:     378098
cpu0->cpu0_L1D TRANSLATION  ACCESS:          0 HIT:          0 MISS:          0 MSHR_MERGE:          0
cpu0->cpu0_L1D PREFETCH REQUESTED:          0 ISSUED:          0 USEFUL:          0 USELESS:          0
cpu0->cpu0_L1D AVERAGE MISS LATENCY: 8.033 cycles
cpu0->cpu0_ITLB TOTAL        ACCESS:   16375705 HIT:   16375705 MISS:          0 MSHR_MERGE:          0
cpu0->cpu0_ITLB LOAD         ACCESS:   16375705 HIT:   16375705 MISS:          0 MSHR_MERGE:          0
cpu0->cpu0_ITLB RFO          ACCESS:          0 HIT:          0 MISS:          0 MSHR_MERGE:          0
cpu0->cpu0_ITLB PREFETCH     ACCESS:          0 HIT:          0 MISS:          0 MSHR_MERGE:          0
cpu0->cpu0_ITLB WRITE        ACCESS:          0 HIT:          0 MISS:          0 MSHR_MERGE:          0
cpu0->cpu0_ITLB TRANSLATION  ACCESS:          0 HIT:          0 MISS:          0 MSHR_MERGE:          0
cpu0->cpu0_ITLB PREFETCH REQUESTED:          0 ISSUED:          0 USEFUL:          0 USELESS:          0
cpu0->cpu0_ITLB AVERAGE MISS LATENCY: - cycles
cpu0->cpu0_DTLB TOTAL        ACCESS:   39218415 HIT:   39214902 MISS:       3513 MSHR_MERGE:       1570
cpu0->cpu0_DTLB LOAD         ACCESS:   39218415 HIT:   39214902 MISS:       3513 MSHR_MERGE:       1570
cpu0->cpu0_DTLB RFO          ACCESS:          0 HIT:          0 MISS:          0 MSHR_MERGE:          0
cpu0->cpu0_DTLB PREFETCH     ACCESS:          0 HIT:          0 MISS:          0 MSHR_MERGE:          0
cpu0->cpu0_DTLB WRITE        ACCESS:          0 HIT:          0 MISS:          0 MSHR_MERGE:          0
cpu0->cpu0_DTLB TRANSLATION  ACCESS:          0 HIT:          0 MISS:          0 MSHR_MERGE:          0
cpu0->cpu0_DTLB PREFETCH REQUESTED:          0 ISSUED:          0 USEFUL:          0 USELESS:          0
cpu0->cpu0_DTLB AVERAGE MISS LATENCY: 5.002 cycles
cpu0->LLC TOTAL        ACCESS:     229368 HIT:     229354 MISS:         14 MSHR_MERGE:          3
cpu0->LLC LOAD         ACCESS:          0 HIT:          0 MISS:          0 MSHR_MERGE:          0
cpu0->LLC RFO          ACCESS:          0 HIT:          0 MISS:          0 MSHR_MERGE:          0
cpu0->LLC PREFETCH     ACCESS:     229368 HIT:     229354 MISS:         14 MSHR_MERGE:          3
cpu0->LLC WRITE        ACCESS:          0 HIT:          0 MISS:          0 MSHR_MERGE:          0
cpu0->LLC TRANSLATION  ACCESS:          0 HIT:          0 MISS:          0 MSHR_MERGE:          0
cpu0->LLC PREFETCH REQUESTED:          0 ISSUED:          0 USEFUL:          0 USELESS:          0
cpu0->LLC AVERAGE MISS LATENCY: - cycles

DRAM Statistics

Channel 0 RQ ROW_BUFFER_HIT:          0
  ROW_BUFFER_MISS:         11
  AVG DBUS CONGESTED CYCLE: 3
Channel 0 WQ ROW_BUFFER_HIT:          0
  ROW_BUFFER_MISS:          0
  FULL:          0
Channel 0 REFRESHES ISSUED:       3719
