[VMEM] WARNING: physical memory size is smaller than virtual memory size.

*** ChampSim Multicore Out-of-Order Simulator ***
Warmup Instructions: 50000000
Simulation Instructions: 100000000
Number of CPUs: 1
Page size: 4096

Off-chip DRAM Size: 16 GiB Channels: 1 Width: 64-bit Data Rate: 3205 MT/s
Heartbeat CPU 0 instructions: 10000001 cycles: 2722374 heartbeat IPC: 3.673 cumulative IPC: 3.673 (Simulation time: 00 hr 00 min 50 sec)
Heartbeat CPU 0 instructions: 20000003 cycles: 5352568 heartbeat IPC: 3.802 cumulative IPC: 3.737 (Simulation time: 00 hr 01 min 38 sec)
Heartbeat CPU 0 instructions: 30000006 cycles: 7991268 heartbeat IPC: 3.79 cumulative IPC: 3.754 (Simulation time: 00 hr 02 min 26 sec)
Heartbeat CPU 0 instructions: 40000010 cycles: 10628746 heartbeat IPC: 3.792 cumulative IPC: 3.763 (Simulation time: 00 hr 03 min 13 sec)
Warmup finished CPU 0 instructions: 50000000 cycles: 13266319 cumulative IPC: 3.769 (Simulation time: 00 hr 04 min 00 sec)
Warmup complete CPU 0 instructions: 50000000 cycles: 13266319 cumulative IPC: 3.769 (Simulation time: 00 hr 04 min 00 sec)
Heartbeat CPU 0 instructions: 50000010 cycles: 13266321 heartbeat IPC: 3.791 cumulative IPC: 5 (Simulation time: 00 hr 04 min 00 sec)
Heartbeat CPU 0 instructions: 60000012 cycles: 32965321 heartbeat IPC: 0.5076 cumulative IPC: 0.5076 (Simulation time: 00 hr 06 min 53 sec)
Heartbeat CPU 0 instructions: 70000015 cycles: 61174389 heartbeat IPC: 0.3545 cumulative IPC: 0.4175 (Simulation time: 00 hr 11 min 01 sec)
Heartbeat CPU 0 instructions: 80000019 cycles: 89350552 heartbeat IPC: 0.3549 cumulative IPC: 0.3943 (Simulation time: 00 hr 15 min 29 sec)
Heartbeat CPU 0 instructions: 90000020 cycles: 117582420 heartbeat IPC: 0.3542 cumulative IPC: 0.3835 (Simulation time: 00 hr 19 min 35 sec)
Heartbeat CPU 0 instructions: 100000024 cycles: 145198535 heartbeat IPC: 0.3621 cumulative IPC: 0.379 (Simulation time: 00 hr 21 min 55 sec)
Heartbeat CPU 0 instructions: 110000024 cycles: 159628071 heartbeat IPC: 0.693 cumulative IPC: 0.4099 (Simulation time: 00 hr 23 min 29 sec)
Heartbeat CPU 0 instructions: 120000024 cycles: 168379267 heartbeat IPC: 1.143 cumulative IPC: 0.4513 (Simulation time: 00 hr 24 min 37 sec)
Heartbeat CPU 0 instructions: 130000026 cycles: 177541965 heartbeat IPC: 1.091 cumulative IPC: 0.487 (Simulation time: 00 hr 25 min 40 sec)
Heartbeat CPU 0 instructions: 140000026 cycles: 186702684 heartbeat IPC: 1.092 cumulative IPC: 0.5189 (Simulation time: 00 hr 26 min 49 sec)
Simulation finished CPU 0 instructions: 100000004 cycles: 182609166 cumulative IPC: 0.5476 (Simulation time: 00 hr 27 min 49 sec)
Simulation complete CPU 0 instructions: 100000004 cycles: 182609166 cumulative IPC: 0.5476 (Simulation time: 00 hr 27 min 49 sec)

ChampSim completed all CPUs

=== Simulation ===
CPU 0 runs ./tracers/437.leslie3d-149B.champsimtrace.xz

Region of Interest Statistics

CPU 0 cumulative IPC: 0.5476 instructions: 100000004 cycles: 182609166
CPU 0 Branch Prediction Accuracy: 99.05% MPKI: 0.353 Average ROB Occupancy at Mispredict: 300.2
Branch type MPKI
BRANCH_DIRECT_JUMP: 0.00026
BRANCH_INDIRECT: 0
BRANCH_CONDITIONAL: 0.3518
BRANCH_DIRECT_CALL: 0.00046
BRANCH_INDIRECT_CALL: 0
BRANCH_RETURN: 0.00043

cpu0->cpu0_STLB TOTAL        ACCESS:      30950 HIT:       4805 MISS:      26145 MSHR_MERGE:          0
cpu0->cpu0_STLB LOAD         ACCESS:      30950 HIT:       4805 MISS:      26145 MSHR_MERGE:          0
cpu0->cpu0_STLB RFO          ACCESS:          0 HIT:          0 MISS:          0 MSHR_MERGE:          0
cpu0->cpu0_STLB PREFETCH     ACCESS:          0 HIT:          0 MISS:          0 MSHR_MERGE:          0
cpu0->cpu0_STLB WRITE        ACCESS:          0 HIT:          0 MISS:          0 MSHR_MERGE:          0
cpu0->cpu0_STLB TRANSLATION  ACCESS:          0 HIT:          0 MISS:          0 MSHR_MERGE:          0
cpu0->cpu0_STLB PREFETCH REQUESTED:          0 ISSUED:          0 USEFUL:          0 USELESS:          0
cpu0->cpu0_STLB AVERAGE MISS LATENCY: 477.1 cycles
cpu0->cpu0_L2C TOTAL        ACCESS:    1631032 HIT:     548835 MISS:    1082197 MSHR_MERGE:          0
cpu0->cpu0_L2C LOAD         ACCESS:     731553 HIT:      22931 MISS:     708622 MSHR_MERGE:          0
cpu0->cpu0_L2C RFO          ACCESS:     356171 HIT:      13500 MISS:     342671 MSHR_MERGE:          0
cpu0->cpu0_L2C PREFETCH     ACCESS:          0 HIT:          0 MISS:          0 MSHR_MERGE:          0
cpu0->cpu0_L2C WRITE        ACCESS:     503293 HIT:     503250 MISS:         43 MSHR_MERGE:          0
cpu0->cpu0_L2C TRANSLATION  ACCESS:      40015 HIT:       9154 MISS:      30861 MSHR_MERGE:          0
cpu0->cpu0_L2C PREFETCH REQUESTED:          0 ISSUED:          0 USEFUL:          0 USELESS:          0
cpu0->cpu0_L2C AVERAGE MISS LATENCY: 220.2 cycles
cpu0->cpu0_L1I TOTAL        ACCESS:   16938940 HIT:   16938461 MISS:        479 MSHR_MERGE:        193
cpu0->cpu0_L1I LOAD         ACCESS:   16938940 HIT:   16938461 MISS:        479 MSHR_MERGE:        193
cpu0->cpu0_L1I RFO          ACCESS:          0 HIT:          0 MISS:          0 MSHR_MERGE:          0
cpu0->cpu0_L1I PREFETCH     ACCESS:          0 HIT:          0 MISS:          0 MSHR_MERGE:          0
cpu0->cpu0_L1I WRITE        ACCESS:          0 HIT:          0 MISS:          0 MSHR_MERGE:          0
cpu0->cpu0_L1I TRANSLATION  ACCESS:          0 HIT:          0 MISS:          0 MSHR_MERGE:          0
cpu0->cpu0_L1I PREFETCH REQUESTED:          0 ISSUED:          0 USEFUL:          0 USELESS:          0
cpu0->cpu0_L1I AVERAGE MISS LATENCY: 235.8 cycles
cpu0->cpu0_L1D TOTAL        ACCESS:   32201839 HIT:   28828271 MISS:    3373568 MSHR_MERGE:    2246112
cpu0->cpu0_L1D LOAD         ACCESS:   27440998 HIT:   25739128 MISS:    1701870 MSHR_MERGE:     970603
cpu0->cpu0_L1D RFO          ACCESS:          0 HIT:          0 MISS:          0 MSHR_MERGE:          0
cpu0->cpu0_L1D PREFETCH     ACCESS:          0 HIT:          0 MISS:          0 MSHR_MERGE:          0
cpu0->cpu0_L1D WRITE        ACCESS:    4708521 HIT:    3076842 MISS:    1631679 MSHR_MERGE:    1275505
cpu0->cpu0_L1D TRANSLATION  ACCESS:      52320 HIT:      12301 MISS:      40019 MSHR_MERGE:          4
cpu0->cpu0_L1D PREFETCH REQUESTED:          0 ISSUED:          0 USEFUL:          0 USELESS:          0
cpu0->cpu0_L1D AVERAGE MISS LATENCY: 220.3 cycles
cpu0->cpu0_ITLB TOTAL        ACCESS:   14436338 HIT:   14436294 MISS:         44 MSHR_MERGE:         29
cpu0->cpu0_ITLB LOAD         ACCESS:   14436338 HIT:   14436294 MISS:         44 MSHR_MERGE:         29
cpu0->cpu0_ITLB RFO          ACCESS:          0 HIT:          0 MISS:          0 MSHR_MERGE:          0
cpu0->cpu0_ITLB PREFETCH     ACCESS:          0 HIT:          0 MISS:          0 MSHR_MERGE:          0
cpu0->cpu0_ITLB WRITE        ACCESS:          0 HIT:          0 MISS:          0 MSHR_MERGE:          0
cpu0->cpu0_ITLB TRANSLATION  ACCESS:          0 HIT:          0 MISS:          0 MSHR_MERGE:          0
cpu0->cpu0_ITLB PREFETCH REQUESTED:          0 ISSUED:          0 USEFUL:          0 USELESS:          0
cpu0->cpu0_ITLB AVERAGE MISS LATENCY: 838.1 cycles
cpu0->cpu0_DTLB TOTAL        ACCESS:   31002377 HIT:   30909609 MISS:      92768 MSHR_MERGE:      61833
cpu0->cpu0_DTLB LOAD         ACCESS:   31002377 HIT:   30909609 MISS:      92768 MSHR_MERGE:      61833
cpu0->cpu0_DTLB RFO          ACCESS:          0 HIT:          0 MISS:          0 MSHR_MERGE:          0
cpu0->cpu0_DTLB PREFETCH     ACCESS:          0 HIT:          0 MISS:          0 MSHR_MERGE:          0
cpu0->cpu0_DTLB WRITE        ACCESS:          0 HIT:          0 MISS:          0 MSHR_MERGE:          0
cpu0->cpu0_DTLB TRANSLATION  ACCESS:          0 HIT:          0 MISS:          0 MSHR_MERGE:          0
cpu0->cpu0_DTLB PREFETCH REQUESTED:          0 ISSUED:          0 USEFUL:          0 USELESS:          0
cpu0->cpu0_DTLB AVERAGE MISS LATENCY: 408.7 cycles
cpu0->LLC TOTAL        ACCESS:    1568903 HIT:     498240 MISS:    1070663 MSHR_MERGE:          0
cpu0->LLC LOAD         ACCESS:     708622 HIT:       8952 MISS:     699670 MSHR_MERGE:          0
cpu0->LLC RFO          ACCESS:     342671 HIT:       3001 MISS:     339670 MSHR_MERGE:          0
cpu0->LLC PREFETCH     ACCESS:          0 HIT:          0 MISS:          0 MSHR_MERGE:          0
cpu0->LLC WRITE        ACCESS:     486749 HIT:     485978 MISS:        771 MSHR_MERGE:          0
cpu0->LLC TRANSLATION  ACCESS:      30861 HIT:        309 MISS:      30552 MSHR_MERGE:          0
cpu0->LLC PREFETCH REQUESTED:          0 ISSUED:          0 USEFUL:          0 USELESS:          0
cpu0->LLC AVERAGE MISS LATENCY: 206.4 cycles

DRAM Statistics

Channel 0 RQ ROW_BUFFER_HIT:       1786
  ROW_BUFFER_MISS:    1068077
  AVG DBUS CONGESTED CYCLE: 10.52
Channel 0 WQ ROW_BUFFER_HIT:     162709
  ROW_BUFFER_MISS:     315492
  FULL:          0
Channel 0 REFRESHES ISSUED:      15217
