[VMEM] WARNING: physical memory size is smaller than virtual memory size.

*** ChampSim Multicore Out-of-Order Simulator ***
Warmup Instructions: 50000000
Simulation Instructions: 100000000
Number of CPUs: 1
Page size: 4096

Initialize SIGNATURE TABLE
ST_SET: 1
ST_WAY: 256
ST_TAG_BIT: 16

Initialize PATTERN TABLE
PT_SET: 512
PT_WAY: 4
SIG_DELTA_BIT: 7
C_SIG_BIT: 4
C_DELTA_BIT: 4

Initialize PREFETCH FILTER
FILTER_SET: 1024
Off-chip DRAM Size: 16 GiB Channels: 1 Width: 64-bit Data Rate: 3205 MT/s
Heartbeat CPU 0 instructions: 10000000 cycles: 2560091 heartbeat IPC: 3.906 cumulative IPC: 3.906 (Simulation time: 00 hr 00 min 42 sec)
Heartbeat CPU 0 instructions: 20000003 cycles: 5072336 heartbeat IPC: 3.981 cumulative IPC: 3.943 (Simulation time: 00 hr 01 min 25 sec)
Heartbeat CPU 0 instructions: 30000006 cycles: 7589511 heartbeat IPC: 3.973 cumulative IPC: 3.953 (Simulation time: 00 hr 02 min 09 sec)
Heartbeat CPU 0 instructions: 40000006 cycles: 10101367 heartbeat IPC: 3.981 cumulative IPC: 3.96 (Simulation time: 00 hr 02 min 44 sec)
Warmup finished CPU 0 instructions: 50000000 cycles: 12615685 cumulative IPC: 3.963 (Simulation time: 00 hr 03 min 13 sec)
Warmup complete CPU 0 instructions: 50000000 cycles: 12615685 cumulative IPC: 3.963 (Simulation time: 00 hr 03 min 13 sec)
Heartbeat CPU 0 instructions: 50000008 cycles: 12615687 heartbeat IPC: 3.977 cumulative IPC: 4 (Simulation time: 00 hr 03 min 13 sec)
Heartbeat CPU 0 instructions: 60000008 cycles: 16746163 heartbeat IPC: 2.421 cumulative IPC: 2.421 (Simulation time: 00 hr 03 min 48 sec)
Heartbeat CPU 0 instructions: 70000010 cycles: 20893355 heartbeat IPC: 2.411 cumulative IPC: 2.416 (Simulation time: 00 hr 04 min 30 sec)
Heartbeat CPU 0 instructions: 80000011 cycles: 25049809 heartbeat IPC: 2.406 cumulative IPC: 2.413 (Simulation time: 00 hr 05 min 25 sec)
Heartbeat CPU 0 instructions: 90000012 cycles: 29160506 heartbeat IPC: 2.433 cumulative IPC: 2.418 (Simulation time: 00 hr 06 min 18 sec)
Heartbeat CPU 0 instructions: 100000012 cycles: 33216183 heartbeat IPC: 2.466 cumulative IPC: 2.427 (Simulation time: 00 hr 07 min 12 sec)
Heartbeat CPU 0 instructions: 110000015 cycles: 37195370 heartbeat IPC: 2.513 cumulative IPC: 2.441 (Simulation time: 00 hr 08 min 05 sec)
Heartbeat CPU 0 instructions: 120000016 cycles: 44375974 heartbeat IPC: 1.393 cumulative IPC: 2.204 (Simulation time: 00 hr 09 min 10 sec)
Heartbeat CPU 0 instructions: 130000017 cycles: 47647222 heartbeat IPC: 3.057 cumulative IPC: 2.284 (Simulation time: 00 hr 09 min 45 sec)
Heartbeat CPU 0 instructions: 140000021 cycles: 51971184 heartbeat IPC: 2.313 cumulative IPC: 2.287 (Simulation time: 00 hr 10 min 23 sec)
Simulation finished CPU 0 instructions: 100000000 cycles: 43963234 cumulative IPC: 2.275 (Simulation time: 00 hr 11 min 02 sec)
Simulation complete CPU 0 instructions: 100000000 cycles: 43963234 cumulative IPC: 2.275 (Simulation time: 00 hr 11 min 02 sec)

ChampSim completed all CPUs

=== Simulation ===
CPU 0 runs /home/zevs_gromovergec/Programming/Interview/Sber/Programming_modulating/ChampSim/tracers/625.x264_s-39B.champsimtrace.xz

Region of Interest Statistics

CPU 0 cumulative IPC: 2.275 instructions: 100000000 cycles: 43963234
CPU 0 Branch Prediction Accuracy: 91.33% MPKI: 3.491 Average ROB Occupancy at Mispredict: 77.46
Branch type MPKI
BRANCH_DIRECT_JUMP: 0.0026
BRANCH_INDIRECT: 0.00318
BRANCH_CONDITIONAL: 3.316
BRANCH_DIRECT_CALL: 0.0024
BRANCH_INDIRECT_CALL: 0.06673
BRANCH_RETURN: 0.1004

cpu0->cpu0_STLB TOTAL        ACCESS:      92248 HIT:      89769 MISS:       2479 MSHR_MERGE:          0
cpu0->cpu0_STLB LOAD         ACCESS:      92248 HIT:      89769 MISS:       2479 MSHR_MERGE:          0
cpu0->cpu0_STLB RFO          ACCESS:          0 HIT:          0 MISS:          0 MSHR_MERGE:          0
cpu0->cpu0_STLB PREFETCH     ACCESS:          0 HIT:          0 MISS:          0 MSHR_MERGE:          0
cpu0->cpu0_STLB WRITE        ACCESS:          0 HIT:          0 MISS:          0 MSHR_MERGE:          0
cpu0->cpu0_STLB TRANSLATION  ACCESS:          0 HIT:          0 MISS:          0 MSHR_MERGE:          0
cpu0->cpu0_STLB PREFETCH REQUESTED:          0 ISSUED:          0 USEFUL:          0 USELESS:          0
cpu0->cpu0_STLB AVERAGE MISS LATENCY: 761 cycles
cpu0->cpu0_L2C TOTAL        ACCESS:    2550467 HIT:    1320859 MISS:    1229608 MSHR_MERGE:      54584
cpu0->cpu0_L2C LOAD         ACCESS:     643114 HIT:     518573 MISS:     124541 MSHR_MERGE:       7450
cpu0->cpu0_L2C RFO          ACCESS:      85982 HIT:      14267 MISS:      71715 MSHR_MERGE:         11
cpu0->cpu0_L2C PREFETCH     ACCESS:    1702924 HIT:     728457 MISS:     974467 MSHR_MERGE:      47123
cpu0->cpu0_L2C WRITE        ACCESS:     114921 HIT:      59559 MISS:      55362 MSHR_MERGE:          0
cpu0->cpu0_L2C TRANSLATION  ACCESS:       3526 HIT:          3 MISS:       3523 MSHR_MERGE:          0
cpu0->cpu0_L2C PREFETCH REQUESTED:    2488533 ISSUED:    1702922 USEFUL:      47598 USELESS:       1186
cpu0->cpu0_L2C AVERAGE MISS LATENCY: 118.7 cycles
cpu0->cpu0_L1I TOTAL        ACCESS:   11168032 HIT:   10428996 MISS:     739036 MSHR_MERGE:     293213
cpu0->cpu0_L1I LOAD         ACCESS:   11168032 HIT:   10428996 MISS:     739036 MSHR_MERGE:     293213
cpu0->cpu0_L1I RFO          ACCESS:          0 HIT:          0 MISS:          0 MSHR_MERGE:          0
cpu0->cpu0_L1I PREFETCH     ACCESS:          0 HIT:          0 MISS:          0 MSHR_MERGE:          0
cpu0->cpu0_L1I WRITE        ACCESS:          0 HIT:          0 MISS:          0 MSHR_MERGE:          0
cpu0->cpu0_L1I TRANSLATION  ACCESS:          0 HIT:          0 MISS:          0 MSHR_MERGE:          0
cpu0->cpu0_L1I PREFETCH REQUESTED:          0 ISSUED:          0 USEFUL:          0 USELESS:          0
cpu0->cpu0_L1I AVERAGE MISS LATENCY: 8.031 cycles
cpu0->cpu0_L1D TOTAL        ACCESS:   21702070 HIT:   20531313 MISS:    1170757 MSHR_MERGE:     883954
cpu0->cpu0_L1D LOAD         ACCESS:   15028485 HIT:   14587860 MISS:     440625 MSHR_MERGE:     243334
cpu0->cpu0_L1D RFO          ACCESS:          0 HIT:          0 MISS:          0 MSHR_MERGE:          0
cpu0->cpu0_L1D PREFETCH     ACCESS:          0 HIT:          0 MISS:          0 MSHR_MERGE:          0
cpu0->cpu0_L1D WRITE        ACCESS:    6668608 HIT:    5942091 MISS:     726517 MSHR_MERGE:     640531
cpu0->cpu0_L1D TRANSLATION  ACCESS:       4977 HIT:       1362 MISS:       3615 MSHR_MERGE:         89
cpu0->cpu0_L1D PREFETCH REQUESTED:          0 ISSUED:          0 USEFUL:          0 USELESS:          0
cpu0->cpu0_L1D AVERAGE MISS LATENCY: 112.4 cycles
cpu0->cpu0_ITLB TOTAL        ACCESS:    9828544 HIT:    9825131 MISS:       3413 MSHR_MERGE:       2392
cpu0->cpu0_ITLB LOAD         ACCESS:    9828544 HIT:    9825131 MISS:       3413 MSHR_MERGE:       2392
cpu0->cpu0_ITLB RFO          ACCESS:          0 HIT:          0 MISS:          0 MSHR_MERGE:          0
cpu0->cpu0_ITLB PREFETCH     ACCESS:          0 HIT:          0 MISS:          0 MSHR_MERGE:          0
cpu0->cpu0_ITLB WRITE        ACCESS:          0 HIT:          0 MISS:          0 MSHR_MERGE:          0
cpu0->cpu0_ITLB TRANSLATION  ACCESS:          0 HIT:          0 MISS:          0 MSHR_MERGE:          0
cpu0->cpu0_ITLB PREFETCH REQUESTED:          0 ISSUED:          0 USEFUL:          0 USELESS:          0
cpu0->cpu0_ITLB AVERAGE MISS LATENCY: 59.46 cycles
cpu0->cpu0_DTLB TOTAL        ACCESS:   20547851 HIT:   20356022 MISS:     191829 MSHR_MERGE:     100602
cpu0->cpu0_DTLB LOAD         ACCESS:   20547851 HIT:   20356022 MISS:     191829 MSHR_MERGE:     100602
cpu0->cpu0_DTLB RFO          ACCESS:          0 HIT:          0 MISS:          0 MSHR_MERGE:          0
cpu0->cpu0_DTLB PREFETCH     ACCESS:          0 HIT:          0 MISS:          0 MSHR_MERGE:          0
cpu0->cpu0_DTLB WRITE        ACCESS:          0 HIT:          0 MISS:          0 MSHR_MERGE:          0
cpu0->cpu0_DTLB TRANSLATION  ACCESS:          0 HIT:          0 MISS:          0 MSHR_MERGE:          0
cpu0->cpu0_DTLB PREFETCH REQUESTED:          0 ISSUED:          0 USEFUL:          0 USELESS:          0
cpu0->cpu0_DTLB AVERAGE MISS LATENCY: 25.1 cycles
cpu0->LLC TOTAL        ACCESS:    1207970 HIT:     761059 MISS:     446911 MSHR_MERGE:     252586
cpu0->LLC LOAD         ACCESS:     117091 HIT:      86026 MISS:      31065 MSHR_MERGE:      14212
cpu0->LLC RFO          ACCESS:      71704 HIT:       2331 MISS:      69373 MSHR_MERGE:        450
cpu0->LLC PREFETCH     ACCESS:     920059 HIT:     580778 MISS:     339281 MSHR_MERGE:     237924
cpu0->LLC WRITE        ACCESS:      95593 HIT:      91883 MISS:       3710 MSHR_MERGE:          0
cpu0->LLC TRANSLATION  ACCESS:       3523 HIT:         41 MISS:       3482 MSHR_MERGE:          0
cpu0->LLC PREFETCH REQUESTED:          0 ISSUED:          0 USEFUL:          0 USELESS:          0
cpu0->LLC AVERAGE MISS LATENCY: 241.7 cycles

DRAM Statistics

Channel 0 RQ ROW_BUFFER_HIT:       5804
  ROW_BUFFER_MISS:     184788
  AVG DBUS CONGESTED CYCLE: 8.59
Channel 0 WQ ROW_BUFFER_HIT:      13348
  ROW_BUFFER_MISS:      79233
  FULL:          0
Channel 0 REFRESHES ISSUED:       3663
