[VMEM] WARNING: physical memory size is smaller than virtual memory size.

*** ChampSim Multicore Out-of-Order Simulator ***
Warmup Instructions: 50000000
Simulation Instructions: 100000000
Number of CPUs: 1
Page size: 4096

Initialize SIGNATURE TABLE
ST_SET: 1
ST_WAY: 256
ST_TAG_BIT: 16

Initialize PATTERN TABLE
PT_SET: 512
PT_WAY: 4
SIG_DELTA_BIT: 7
C_SIG_BIT: 4
C_DELTA_BIT: 4

Initialize PREFETCH FILTER
FILTER_SET: 1024
Off-chip DRAM Size: 16 GiB Channels: 1 Width: 64-bit Data Rate: 3205 MT/s
Heartbeat CPU 0 instructions: 10000000 cycles: 2558339 heartbeat IPC: 3.909 cumulative IPC: 3.909 (Simulation time: 00 hr 00 min 50 sec)
Heartbeat CPU 0 instructions: 20000002 cycles: 5147760 heartbeat IPC: 3.862 cumulative IPC: 3.885 (Simulation time: 00 hr 01 min 46 sec)
Heartbeat CPU 0 instructions: 30000005 cycles: 7660448 heartbeat IPC: 3.98 cumulative IPC: 3.916 (Simulation time: 00 hr 02 min 40 sec)
Heartbeat CPU 0 instructions: 40000008 cycles: 10175720 heartbeat IPC: 3.976 cumulative IPC: 3.931 (Simulation time: 00 hr 03 min 35 sec)
Warmup finished CPU 0 instructions: 50000000 cycles: 12679502 cumulative IPC: 3.943 (Simulation time: 00 hr 04 min 27 sec)
Warmup complete CPU 0 instructions: 50000000 cycles: 12679502 cumulative IPC: 3.943 (Simulation time: 00 hr 04 min 27 sec)
Heartbeat CPU 0 instructions: 50000010 cycles: 12679504 heartbeat IPC: 3.994 cumulative IPC: 5 (Simulation time: 00 hr 04 min 27 sec)
Heartbeat CPU 0 instructions: 60000014 cycles: 17376342 heartbeat IPC: 2.129 cumulative IPC: 2.129 (Simulation time: 00 hr 05 min 43 sec)
Heartbeat CPU 0 instructions: 70000018 cycles: 22397519 heartbeat IPC: 1.992 cumulative IPC: 2.058 (Simulation time: 00 hr 06 min 32 sec)
Heartbeat CPU 0 instructions: 80000018 cycles: 27416123 heartbeat IPC: 1.993 cumulative IPC: 2.036 (Simulation time: 00 hr 07 min 21 sec)
Heartbeat CPU 0 instructions: 90000019 cycles: 32473337 heartbeat IPC: 1.977 cumulative IPC: 2.021 (Simulation time: 00 hr 08 min 10 sec)
Heartbeat CPU 0 instructions: 100000019 cycles: 37495702 heartbeat IPC: 1.991 cumulative IPC: 2.015 (Simulation time: 00 hr 08 min 59 sec)
Heartbeat CPU 0 instructions: 110000020 cycles: 42516541 heartbeat IPC: 1.992 cumulative IPC: 2.011 (Simulation time: 00 hr 09 min 48 sec)
Heartbeat CPU 0 instructions: 120000023 cycles: 47538734 heartbeat IPC: 1.991 cumulative IPC: 2.008 (Simulation time: 00 hr 10 min 36 sec)
Heartbeat CPU 0 instructions: 130000025 cycles: 52557860 heartbeat IPC: 1.992 cumulative IPC: 2.006 (Simulation time: 00 hr 11 min 21 sec)
Heartbeat CPU 0 instructions: 140000026 cycles: 57594837 heartbeat IPC: 1.985 cumulative IPC: 2.004 (Simulation time: 00 hr 12 min 08 sec)
Simulation finished CPU 0 instructions: 100000002 cycles: 49938539 cumulative IPC: 2.002 (Simulation time: 00 hr 13 min 11 sec)
Simulation complete CPU 0 instructions: 100000002 cycles: 49938539 cumulative IPC: 2.002 (Simulation time: 00 hr 13 min 11 sec)

ChampSim completed all CPUs

=== Simulation ===
CPU 0 runs /home/zevs_gromovergec/Programming/Interview/Sber/Programming_modulating/ChampSim/tracers/456.hmmer-327B.champsimtrace.xz

Region of Interest Statistics

CPU 0 cumulative IPC: 2.002 instructions: 100000002 cycles: 49938539
CPU 0 Branch Prediction Accuracy: 99.38% MPKI: 0.2744 Average ROB Occupancy at Mispredict: 104.4
Branch type MPKI
BRANCH_DIRECT_JUMP: 2e-05
BRANCH_INDIRECT: 0.00042
BRANCH_CONDITIONAL: 0.2738
BRANCH_DIRECT_CALL: 4e-05
BRANCH_INDIRECT_CALL: 0.0001
BRANCH_RETURN: 5e-05

cpu0->cpu0_STLB TOTAL        ACCESS:       6572 HIT:       6438 MISS:        134 MSHR_MERGE:          0
cpu0->cpu0_STLB LOAD         ACCESS:       6572 HIT:       6438 MISS:        134 MSHR_MERGE:          0
cpu0->cpu0_STLB RFO          ACCESS:          0 HIT:          0 MISS:          0 MSHR_MERGE:          0
cpu0->cpu0_STLB PREFETCH     ACCESS:          0 HIT:          0 MISS:          0 MSHR_MERGE:          0
cpu0->cpu0_STLB WRITE        ACCESS:          0 HIT:          0 MISS:          0 MSHR_MERGE:          0
cpu0->cpu0_STLB TRANSLATION  ACCESS:          0 HIT:          0 MISS:          0 MSHR_MERGE:          0
cpu0->cpu0_STLB PREFETCH REQUESTED:          0 ISSUED:          0 USEFUL:          0 USELESS:          0
cpu0->cpu0_STLB AVERAGE MISS LATENCY: 685.1 cycles
cpu0->cpu0_L2C TOTAL        ACCESS:    1386372 HIT:     984825 MISS:     401547 MSHR_MERGE:       1066
cpu0->cpu0_L2C LOAD         ACCESS:     147641 HIT:     144263 MISS:       3378 MSHR_MERGE:          3
cpu0->cpu0_L2C RFO          ACCESS:     266400 HIT:       7583 MISS:     258817 MSHR_MERGE:          0
cpu0->cpu0_L2C PREFETCH     ACCESS:     705096 HIT:     693908 MISS:      11188 MSHR_MERGE:       1063
cpu0->cpu0_L2C WRITE        ACCESS:     267065 HIT:     139065 MISS:     128000 MSHR_MERGE:          0
cpu0->cpu0_L2C TRANSLATION  ACCESS:        170 HIT:          6 MISS:        164 MSHR_MERGE:          0
cpu0->cpu0_L2C PREFETCH REQUESTED:     705149 ISSUED:     705096 USEFUL:         68 USELESS:        331
cpu0->cpu0_L2C AVERAGE MISS LATENCY: 44.94 cycles
cpu0->cpu0_L1I TOTAL        ACCESS:   19602483 HIT:   19602478 MISS:          5 MSHR_MERGE:          0
cpu0->cpu0_L1I LOAD         ACCESS:   19602483 HIT:   19602478 MISS:          5 MSHR_MERGE:          0
cpu0->cpu0_L1I RFO          ACCESS:          0 HIT:          0 MISS:          0 MSHR_MERGE:          0
cpu0->cpu0_L1I PREFETCH     ACCESS:          0 HIT:          0 MISS:          0 MSHR_MERGE:          0
cpu0->cpu0_L1I WRITE        ACCESS:          0 HIT:          0 MISS:          0 MSHR_MERGE:          0
cpu0->cpu0_L1I TRANSLATION  ACCESS:          0 HIT:          0 MISS:          0 MSHR_MERGE:          0
cpu0->cpu0_L1I PREFETCH REQUESTED:          0 ISSUED:          0 USEFUL:          0 USELESS:          0
cpu0->cpu0_L1I AVERAGE MISS LATENCY: 175.8 cycles
cpu0->cpu0_L1D TOTAL        ACCESS:   44461820 HIT:   42296049 MISS:    2165771 MSHR_MERGE:    1751565
cpu0->cpu0_L1D LOAD         ACCESS:   31490373 HIT:   31338406 MISS:     151967 MSHR_MERGE:       4331
cpu0->cpu0_L1D RFO          ACCESS:          0 HIT:          0 MISS:          0 MSHR_MERGE:          0
cpu0->cpu0_L1D PREFETCH     ACCESS:          0 HIT:          0 MISS:          0 MSHR_MERGE:          0
cpu0->cpu0_L1D WRITE        ACCESS:   12971179 HIT:   10957545 MISS:    2013634 MSHR_MERGE:    1747234
cpu0->cpu0_L1D TRANSLATION  ACCESS:        268 HIT:         98 MISS:        170 MSHR_MERGE:          0
cpu0->cpu0_L1D PREFETCH REQUESTED:          0 ISSUED:          0 USEFUL:          0 USELESS:          0
cpu0->cpu0_L1D AVERAGE MISS LATENCY: 49.77 cycles
cpu0->cpu0_ITLB TOTAL        ACCESS:   18123096 HIT:   18123094 MISS:          2 MSHR_MERGE:          1
cpu0->cpu0_ITLB LOAD         ACCESS:   18123096 HIT:   18123094 MISS:          2 MSHR_MERGE:          1
cpu0->cpu0_ITLB RFO          ACCESS:          0 HIT:          0 MISS:          0 MSHR_MERGE:          0
cpu0->cpu0_ITLB PREFETCH     ACCESS:          0 HIT:          0 MISS:          0 MSHR_MERGE:          0
cpu0->cpu0_ITLB WRITE        ACCESS:          0 HIT:          0 MISS:          0 MSHR_MERGE:          0
cpu0->cpu0_ITLB TRANSLATION  ACCESS:          0 HIT:          0 MISS:          0 MSHR_MERGE:          0
cpu0->cpu0_ITLB PREFETCH REQUESTED:          0 ISSUED:          0 USEFUL:          0 USELESS:          0
cpu0->cpu0_ITLB AVERAGE MISS LATENCY: 870 cycles
cpu0->cpu0_DTLB TOTAL        ACCESS:   42338592 HIT:   42327090 MISS:      11502 MSHR_MERGE:       4931
cpu0->cpu0_DTLB LOAD         ACCESS:   42338592 HIT:   42327090 MISS:      11502 MSHR_MERGE:       4931
cpu0->cpu0_DTLB RFO          ACCESS:          0 HIT:          0 MISS:          0 MSHR_MERGE:          0
cpu0->cpu0_DTLB PREFETCH     ACCESS:          0 HIT:          0 MISS:          0 MSHR_MERGE:          0
cpu0->cpu0_DTLB WRITE        ACCESS:          0 HIT:          0 MISS:          0 MSHR_MERGE:          0
cpu0->cpu0_DTLB TRANSLATION  ACCESS:          0 HIT:          0 MISS:          0 MSHR_MERGE:          0
cpu0->cpu0_DTLB PREFETCH REQUESTED:          0 ISSUED:          0 USEFUL:          0 USELESS:          0
cpu0->cpu0_DTLB AVERAGE MISS LATENCY: 18.87 cycles
cpu0->LLC TOTAL        ACCESS:     531582 HIT:     460490 MISS:      71092 MSHR_MERGE:         69
cpu0->LLC LOAD         ACCESS:       3375 HIT:       3261 MISS:        114 MSHR_MERGE:          2
cpu0->LLC RFO          ACCESS:     258817 HIT:     188897 MISS:      69920 MSHR_MERGE:          1
cpu0->LLC PREFETCH     ACCESS:      10080 HIT:       9550 MISS:        530 MSHR_MERGE:         66
cpu0->LLC WRITE        ACCESS:     259146 HIT:     258777 MISS:        369 MSHR_MERGE:          0
cpu0->LLC TRANSLATION  ACCESS:        164 HIT:          5 MISS:        159 MSHR_MERGE:          0
cpu0->LLC PREFETCH REQUESTED:          0 ISSUED:          0 USEFUL:          0 USELESS:          0
cpu0->LLC AVERAGE MISS LATENCY: 184.5 cycles

DRAM Statistics

Channel 0 RQ ROW_BUFFER_HIT:         17
  ROW_BUFFER_MISS:      70635
  AVG DBUS CONGESTED CYCLE: 6.528
Channel 0 WQ ROW_BUFFER_HIT:        926
  ROW_BUFFER_MISS:      68257
  FULL:          0
Channel 0 REFRESHES ISSUED:       4162
