[VMEM] WARNING: physical memory size is smaller than virtual memory size.

*** ChampSim Multicore Out-of-Order Simulator ***
Warmup Instructions: 50000000
Simulation Instructions: 100000000
Number of CPUs: 1
Page size: 4096

Off-chip DRAM Size: 16 GiB Channels: 1 Width: 64-bit Data Rate: 3205 MT/s
Heartbeat CPU 0 instructions: 10000000 cycles: 2560240 heartbeat IPC: 3.906 cumulative IPC: 3.906 (Simulation time: 00 hr 00 min 45 sec)
Heartbeat CPU 0 instructions: 20000003 cycles: 5072686 heartbeat IPC: 3.98 cumulative IPC: 3.943 (Simulation time: 00 hr 01 min 29 sec)
Heartbeat CPU 0 instructions: 30000003 cycles: 7589886 heartbeat IPC: 3.973 cumulative IPC: 3.953 (Simulation time: 00 hr 02 min 12 sec)
Heartbeat CPU 0 instructions: 40000006 cycles: 10101967 heartbeat IPC: 3.981 cumulative IPC: 3.96 (Simulation time: 00 hr 02 min 55 sec)
Warmup finished CPU 0 instructions: 50000000 cycles: 12616329 cumulative IPC: 3.963 (Simulation time: 00 hr 03 min 40 sec)
Warmup complete CPU 0 instructions: 50000000 cycles: 12616329 cumulative IPC: 3.963 (Simulation time: 00 hr 03 min 40 sec)
Heartbeat CPU 0 instructions: 50000008 cycles: 12616331 heartbeat IPC: 3.977 cumulative IPC: 4 (Simulation time: 00 hr 03 min 40 sec)
Heartbeat CPU 0 instructions: 60000008 cycles: 16887384 heartbeat IPC: 2.341 cumulative IPC: 2.341 (Simulation time: 00 hr 04 min 35 sec)
Heartbeat CPU 0 instructions: 70000010 cycles: 21214915 heartbeat IPC: 2.311 cumulative IPC: 2.326 (Simulation time: 00 hr 05 min 26 sec)
Heartbeat CPU 0 instructions: 80000011 cycles: 25498905 heartbeat IPC: 2.334 cumulative IPC: 2.329 (Simulation time: 00 hr 06 min 19 sec)
Heartbeat CPU 0 instructions: 90000012 cycles: 29796613 heartbeat IPC: 2.327 cumulative IPC: 2.328 (Simulation time: 00 hr 07 min 13 sec)
Heartbeat CPU 0 instructions: 100000012 cycles: 34007059 heartbeat IPC: 2.375 cumulative IPC: 2.337 (Simulation time: 00 hr 08 min 07 sec)
Heartbeat CPU 0 instructions: 110000015 cycles: 38113330 heartbeat IPC: 2.435 cumulative IPC: 2.353 (Simulation time: 00 hr 09 min 00 sec)
Heartbeat CPU 0 instructions: 120000016 cycles: 50790464 heartbeat IPC: 0.7888 cumulative IPC: 1.834 (Simulation time: 00 hr 11 min 12 sec)
Heartbeat CPU 0 instructions: 130000017 cycles: 54840534 heartbeat IPC: 2.469 cumulative IPC: 1.895 (Simulation time: 00 hr 12 min 10 sec)
Heartbeat CPU 0 instructions: 140000021 cycles: 62049341 heartbeat IPC: 1.387 cumulative IPC: 1.821 (Simulation time: 00 hr 13 min 27 sec)
Simulation finished CPU 0 instructions: 100000000 cycles: 54258433 cumulative IPC: 1.843 (Simulation time: 00 hr 14 min 27 sec)
Simulation complete CPU 0 instructions: 100000000 cycles: 54258433 cumulative IPC: 1.843 (Simulation time: 00 hr 14 min 27 sec)

ChampSim completed all CPUs

=== Simulation ===
CPU 0 runs /home/zevs_gromovergec/Programming/Interview/Sber/Programming_modulating/ChampSim/tracers/625.x264_s-39B.champsimtrace.xz

Region of Interest Statistics

CPU 0 cumulative IPC: 1.843 instructions: 100000000 cycles: 54258433
CPU 0 Branch Prediction Accuracy: 91.33% MPKI: 3.491 Average ROB Occupancy at Mispredict: 77.98
Branch type MPKI
BRANCH_DIRECT_JUMP: 0.0026
BRANCH_INDIRECT: 0.00318
BRANCH_CONDITIONAL: 3.316
BRANCH_DIRECT_CALL: 0.0024
BRANCH_INDIRECT_CALL: 0.06673
BRANCH_RETURN: 0.1004

cpu0->cpu0_STLB TOTAL        ACCESS:      92244 HIT:      89765 MISS:       2479 MSHR_MERGE:          0
cpu0->cpu0_STLB LOAD         ACCESS:      92244 HIT:      89765 MISS:       2479 MSHR_MERGE:          0
cpu0->cpu0_STLB RFO          ACCESS:          0 HIT:          0 MISS:          0 MSHR_MERGE:          0
cpu0->cpu0_STLB PREFETCH     ACCESS:          0 HIT:          0 MISS:          0 MSHR_MERGE:          0
cpu0->cpu0_STLB WRITE        ACCESS:          0 HIT:          0 MISS:          0 MSHR_MERGE:          0
cpu0->cpu0_STLB TRANSLATION  ACCESS:          0 HIT:          0 MISS:          0 MSHR_MERGE:          0
cpu0->cpu0_STLB PREFETCH REQUESTED:          0 ISSUED:          0 USEFUL:          0 USELESS:          0
cpu0->cpu0_STLB AVERAGE MISS LATENCY: 737.5 cycles
cpu0->cpu0_L2C TOTAL        ACCESS:     847545 HIT:     547703 MISS:     299842 MSHR_MERGE:          0
cpu0->cpu0_L2C LOAD         ACCESS:     643086 HIT:     476992 MISS:     166094 MSHR_MERGE:          0
cpu0->cpu0_L2C RFO          ACCESS:      85991 HIT:      15047 MISS:      70944 MSHR_MERGE:          0
cpu0->cpu0_L2C PREFETCH     ACCESS:          0 HIT:          0 MISS:          0 MSHR_MERGE:          0
cpu0->cpu0_L2C WRITE        ACCESS:     114942 HIT:      55659 MISS:      59283 MSHR_MERGE:          0
cpu0->cpu0_L2C TRANSLATION  ACCESS:       3526 HIT:          5 MISS:       3521 MSHR_MERGE:          0
cpu0->cpu0_L2C PREFETCH REQUESTED:          0 ISSUED:          0 USEFUL:          0 USELESS:          0
cpu0->cpu0_L2C AVERAGE MISS LATENCY: 156.4 cycles
cpu0->cpu0_L1I TOTAL        ACCESS:   11186593 HIT:   10447487 MISS:     739106 MSHR_MERGE:     293304
cpu0->cpu0_L1I LOAD         ACCESS:   11186593 HIT:   10447487 MISS:     739106 MSHR_MERGE:     293304
cpu0->cpu0_L1I RFO          ACCESS:          0 HIT:          0 MISS:          0 MSHR_MERGE:          0
cpu0->cpu0_L1I PREFETCH     ACCESS:          0 HIT:          0 MISS:          0 MSHR_MERGE:          0
cpu0->cpu0_L1I WRITE        ACCESS:          0 HIT:          0 MISS:          0 MSHR_MERGE:          0
cpu0->cpu0_L1I TRANSLATION  ACCESS:          0 HIT:          0 MISS:          0 MSHR_MERGE:          0
cpu0->cpu0_L1I PREFETCH REQUESTED:          0 ISSUED:          0 USEFUL:          0 USELESS:          0
cpu0->cpu0_L1I AVERAGE MISS LATENCY: 7.636 cycles
cpu0->cpu0_L1D TOTAL        ACCESS:   21704224 HIT:   20598240 MISS:    1105984 MSHR_MERGE:     819181
cpu0->cpu0_L1D LOAD         ACCESS:   15030607 HIT:   14588094 MISS:     442513 MSHR_MERGE:     245229
cpu0->cpu0_L1D RFO          ACCESS:          0 HIT:          0 MISS:          0 MSHR_MERGE:          0
cpu0->cpu0_L1D PREFETCH     ACCESS:          0 HIT:          0 MISS:          0 MSHR_MERGE:          0
cpu0->cpu0_L1D WRITE        ACCESS:    6668640 HIT:    6008789 MISS:     659851 MSHR_MERGE:     573858
cpu0->cpu0_L1D TRANSLATION  ACCESS:       4977 HIT:       1357 MISS:       3620 MSHR_MERGE:         94
cpu0->cpu0_L1D PREFETCH REQUESTED:          0 ISSUED:          0 USEFUL:          0 USELESS:          0
cpu0->cpu0_L1D AVERAGE MISS LATENCY: 170.7 cycles
cpu0->cpu0_ITLB TOTAL        ACCESS:    9850395 HIT:    9846965 MISS:       3430 MSHR_MERGE:       2409
cpu0->cpu0_ITLB LOAD         ACCESS:    9850395 HIT:    9846965 MISS:       3430 MSHR_MERGE:       2409
cpu0->cpu0_ITLB RFO          ACCESS:          0 HIT:          0 MISS:          0 MSHR_MERGE:          0
cpu0->cpu0_ITLB PREFETCH     ACCESS:          0 HIT:          0 MISS:          0 MSHR_MERGE:          0
cpu0->cpu0_ITLB WRITE        ACCESS:          0 HIT:          0 MISS:          0 MSHR_MERGE:          0
cpu0->cpu0_ITLB TRANSLATION  ACCESS:          0 HIT:          0 MISS:          0 MSHR_MERGE:          0
cpu0->cpu0_ITLB PREFETCH REQUESTED:          0 ISSUED:          0 USEFUL:          0 USELESS:          0
cpu0->cpu0_ITLB AVERAGE MISS LATENCY: 53.8 cycles
cpu0->cpu0_DTLB TOTAL        ACCESS:   20556570 HIT:   20365327 MISS:     191243 MSHR_MERGE:     100020
cpu0->cpu0_DTLB LOAD         ACCESS:   20556570 HIT:   20365327 MISS:     191243 MSHR_MERGE:     100020
cpu0->cpu0_DTLB RFO          ACCESS:          0 HIT:          0 MISS:          0 MSHR_MERGE:          0
cpu0->cpu0_DTLB PREFETCH     ACCESS:          0 HIT:          0 MISS:          0 MSHR_MERGE:          0
cpu0->cpu0_DTLB WRITE        ACCESS:          0 HIT:          0 MISS:          0 MSHR_MERGE:          0
cpu0->cpu0_DTLB TRANSLATION  ACCESS:          0 HIT:          0 MISS:          0 MSHR_MERGE:          0
cpu0->cpu0_DTLB PREFETCH REQUESTED:          0 ISSUED:          0 USEFUL:          0 USELESS:          0
cpu0->cpu0_DTLB AVERAGE MISS LATENCY: 24.52 cycles
cpu0->LLC TOTAL        ACCESS:     333235 HIT:     143956 MISS:     189279 MSHR_MERGE:          0
cpu0->LLC LOAD         ACCESS:     166094 HIT:      53792 MISS:     112302 MSHR_MERGE:          0
cpu0->LLC RFO          ACCESS:      70944 HIT:        431 MISS:      70513 MSHR_MERGE:          0
cpu0->LLC PREFETCH     ACCESS:          0 HIT:          0 MISS:          0 MSHR_MERGE:          0
cpu0->LLC WRITE        ACCESS:      92676 HIT:      89692 MISS:       2984 MSHR_MERGE:          0
cpu0->LLC TRANSLATION  ACCESS:       3521 HIT:         41 MISS:       3480 MSHR_MERGE:          0
cpu0->LLC PREFETCH REQUESTED:          0 ISSUED:          0 USEFUL:          0 USELESS:          0
cpu0->LLC AVERAGE MISS LATENCY: 226.6 cycles

DRAM Statistics

Channel 0 RQ ROW_BUFFER_HIT:       3454
  ROW_BUFFER_MISS:     182806
  AVG DBUS CONGESTED CYCLE: 10.92
Channel 0 WQ ROW_BUFFER_HIT:      22760
  ROW_BUFFER_MISS:      62168
  FULL:          0
Channel 0 REFRESHES ISSUED:       4521
