[VMEM] WARNING: physical memory size is smaller than virtual memory size.

*** ChampSim Multicore Out-of-Order Simulator ***
Warmup Instructions: 50000000
Simulation Instructions: 100000000
Number of CPUs: 1
Page size: 4096

Off-chip DRAM Size: 16 GiB Channels: 1 Width: 64-bit Data Rate: 3205 MT/s
Heartbeat CPU 0 instructions: 10000003 cycles: 2675791 heartbeat IPC: 3.737 cumulative IPC: 3.737 (Simulation time: 00 hr 00 min 50 sec)
Heartbeat CPU 0 instructions: 20000004 cycles: 5356420 heartbeat IPC: 3.73 cumulative IPC: 3.734 (Simulation time: 00 hr 01 min 40 sec)
Heartbeat CPU 0 instructions: 30000004 cycles: 8082223 heartbeat IPC: 3.669 cumulative IPC: 3.712 (Simulation time: 00 hr 02 min 30 sec)
Heartbeat CPU 0 instructions: 40000005 cycles: 10803749 heartbeat IPC: 3.674 cumulative IPC: 3.702 (Simulation time: 00 hr 03 min 20 sec)
Warmup finished CPU 0 instructions: 50000001 cycles: 13518649 cumulative IPC: 3.699 (Simulation time: 00 hr 04 min 10 sec)
Warmup complete CPU 0 instructions: 50000001 cycles: 13518649 cumulative IPC: 3.699 (Simulation time: 00 hr 04 min 10 sec)
Heartbeat CPU 0 instructions: 50000006 cycles: 13518650 heartbeat IPC: 3.683 cumulative IPC: 5 (Simulation time: 00 hr 04 min 10 sec)
Heartbeat CPU 0 instructions: 60000009 cycles: 23336900 heartbeat IPC: 1.019 cumulative IPC: 1.019 (Simulation time: 00 hr 06 min 19 sec)
Heartbeat CPU 0 instructions: 70000011 cycles: 33138380 heartbeat IPC: 1.02 cumulative IPC: 1.019 (Simulation time: 00 hr 08 min 30 sec)
Heartbeat CPU 0 instructions: 80000012 cycles: 42972831 heartbeat IPC: 1.017 cumulative IPC: 1.019 (Simulation time: 00 hr 10 min 40 sec)
Heartbeat CPU 0 instructions: 90000014 cycles: 63961913 heartbeat IPC: 0.4764 cumulative IPC: 0.793 (Simulation time: 00 hr 14 min 37 sec)
Heartbeat CPU 0 instructions: 100000015 cycles: 86903161 heartbeat IPC: 0.4359 cumulative IPC: 0.6813 (Simulation time: 00 hr 18 min 47 sec)
Heartbeat CPU 0 instructions: 110000017 cycles: 108344578 heartbeat IPC: 0.4664 cumulative IPC: 0.6327 (Simulation time: 00 hr 22 min 39 sec)
Heartbeat CPU 0 instructions: 120000019 cycles: 121067027 heartbeat IPC: 0.786 cumulative IPC: 0.6509 (Simulation time: 00 hr 24 min 49 sec)
Heartbeat CPU 0 instructions: 130000021 cycles: 133734895 heartbeat IPC: 0.7894 cumulative IPC: 0.6655 (Simulation time: 00 hr 26 min 14 sec)
Heartbeat CPU 0 instructions: 140000023 cycles: 146301185 heartbeat IPC: 0.7958 cumulative IPC: 0.6778 (Simulation time: 00 hr 27 min 24 sec)
Simulation finished CPU 0 instructions: 100000000 cycles: 145104981 cumulative IPC: 0.6892 (Simulation time: 00 hr 28 min 29 sec)
Simulation complete CPU 0 instructions: 100000000 cycles: 145104981 cumulative IPC: 0.6892 (Simulation time: 00 hr 28 min 29 sec)

ChampSim completed all CPUs

=== Simulation ===
CPU 0 runs /home/zevs_gromovergec/Programming/Interview/Sber/Programming_modulating/ChampSim/tracers/437.leslie3d-273B.champsimtrace.xz

Region of Interest Statistics

CPU 0 cumulative IPC: 0.6892 instructions: 100000000 cycles: 145104981
CPU 0 Branch Prediction Accuracy: 99.19% MPKI: 0.1548 Average ROB Occupancy at Mispredict: 335.8
Branch type MPKI
BRANCH_DIRECT_JUMP: 6e-05
BRANCH_INDIRECT: 0
BRANCH_CONDITIONAL: 0.1547
BRANCH_DIRECT_CALL: 0
BRANCH_INDIRECT_CALL: 0
BRANCH_RETURN: 1e-05

cpu0->cpu0_STLB TOTAL        ACCESS:      14230 HIT:        501 MISS:      13729 MSHR_MERGE:          0
cpu0->cpu0_STLB LOAD         ACCESS:      14230 HIT:        501 MISS:      13729 MSHR_MERGE:          0
cpu0->cpu0_STLB RFO          ACCESS:          0 HIT:          0 MISS:          0 MSHR_MERGE:          0
cpu0->cpu0_STLB PREFETCH     ACCESS:          0 HIT:          0 MISS:          0 MSHR_MERGE:          0
cpu0->cpu0_STLB WRITE        ACCESS:          0 HIT:          0 MISS:          0 MSHR_MERGE:          0
cpu0->cpu0_STLB TRANSLATION  ACCESS:          0 HIT:          0 MISS:          0 MSHR_MERGE:          0
cpu0->cpu0_STLB PREFETCH REQUESTED:          0 ISSUED:          0 USEFUL:          0 USELESS:          0
cpu0->cpu0_STLB AVERAGE MISS LATENCY: 472 cycles
cpu0->cpu0_L2C TOTAL        ACCESS:    1162361 HIT:      79274 MISS:    1083087 MSHR_MERGE:          0
cpu0->cpu0_L2C LOAD         ACCESS:     606047 HIT:       9858 MISS:     596189 MSHR_MERGE:          0
cpu0->cpu0_L2C RFO          ACCESS:     268538 HIT:       7734 MISS:     260804 MSHR_MERGE:          0
cpu0->cpu0_L2C PREFETCH     ACCESS:          0 HIT:          0 MISS:          0 MSHR_MERGE:          0
cpu0->cpu0_L2C WRITE        ACCESS:     271823 HIT:      61581 MISS:     210242 MSHR_MERGE:          0
cpu0->cpu0_L2C TRANSLATION  ACCESS:      15953 HIT:        101 MISS:      15852 MSHR_MERGE:          0
cpu0->cpu0_L2C PREFETCH REQUESTED:          0 ISSUED:          0 USEFUL:          0 USELESS:          0
cpu0->cpu0_L2C AVERAGE MISS LATENCY: 180.5 cycles
cpu0->cpu0_L1I TOTAL        ACCESS:   21518322 HIT:   21518163 MISS:        159 MSHR_MERGE:         71
cpu0->cpu0_L1I LOAD         ACCESS:   21518322 HIT:   21518163 MISS:        159 MSHR_MERGE:         71
cpu0->cpu0_L1I RFO          ACCESS:          0 HIT:          0 MISS:          0 MSHR_MERGE:          0
cpu0->cpu0_L1I PREFETCH     ACCESS:          0 HIT:          0 MISS:          0 MSHR_MERGE:          0
cpu0->cpu0_L1I WRITE        ACCESS:          0 HIT:          0 MISS:          0 MSHR_MERGE:          0
cpu0->cpu0_L1I TRANSLATION  ACCESS:          0 HIT:          0 MISS:          0 MSHR_MERGE:          0
cpu0->cpu0_L1I PREFETCH REQUESTED:          0 ISSUED:          0 USEFUL:          0 USELESS:          0
cpu0->cpu0_L1I AVERAGE MISS LATENCY: 254 cycles
cpu0->cpu0_L1D TOTAL        ACCESS:   35840277 HIT:   33403856 MISS:    2436421 MSHR_MERGE:    1545970
cpu0->cpu0_L1D LOAD         ACCESS:   33596457 HIT:   32644811 MISS:     951646 MSHR_MERGE:     345687
cpu0->cpu0_L1D RFO          ACCESS:          0 HIT:          0 MISS:          0 MSHR_MERGE:          0
cpu0->cpu0_L1D PREFETCH     ACCESS:          0 HIT:          0 MISS:          0 MSHR_MERGE:          0
cpu0->cpu0_L1D WRITE        ACCESS:    2216348 HIT:     747531 MISS:    1468817 MSHR_MERGE:    1200278
cpu0->cpu0_L1D TRANSLATION  ACCESS:      27472 HIT:      11514 MISS:      15958 MSHR_MERGE:          5
cpu0->cpu0_L1D PREFETCH REQUESTED:          0 ISSUED:          0 USEFUL:          0 USELESS:          0
cpu0->cpu0_L1D AVERAGE MISS LATENCY: 227.5 cycles
cpu0->cpu0_ITLB TOTAL        ACCESS:   17940172 HIT:   17940165 MISS:          7 MSHR_MERGE:          5
cpu0->cpu0_ITLB LOAD         ACCESS:   17940172 HIT:   17940165 MISS:          7 MSHR_MERGE:          5
cpu0->cpu0_ITLB RFO          ACCESS:          0 HIT:          0 MISS:          0 MSHR_MERGE:          0
cpu0->cpu0_ITLB PREFETCH     ACCESS:          0 HIT:          0 MISS:          0 MSHR_MERGE:          0
cpu0->cpu0_ITLB WRITE        ACCESS:          0 HIT:          0 MISS:          0 MSHR_MERGE:          0
cpu0->cpu0_ITLB TRANSLATION  ACCESS:          0 HIT:          0 MISS:          0 MSHR_MERGE:          0
cpu0->cpu0_ITLB PREFETCH REQUESTED:          0 ISSUED:          0 USEFUL:          0 USELESS:          0
cpu0->cpu0_ITLB AVERAGE MISS LATENCY: 844 cycles
cpu0->cpu0_DTLB TOTAL        ACCESS:   34516751 HIT:   34453148 MISS:      63603 MSHR_MERGE:      49375
cpu0->cpu0_DTLB LOAD         ACCESS:   34516751 HIT:   34453148 MISS:      63603 MSHR_MERGE:      49375
cpu0->cpu0_DTLB RFO          ACCESS:          0 HIT:          0 MISS:          0 MSHR_MERGE:          0
cpu0->cpu0_DTLB PREFETCH     ACCESS:          0 HIT:          0 MISS:          0 MSHR_MERGE:          0
cpu0->cpu0_DTLB WRITE        ACCESS:          0 HIT:          0 MISS:          0 MSHR_MERGE:          0
cpu0->cpu0_DTLB TRANSLATION  ACCESS:          0 HIT:          0 MISS:          0 MSHR_MERGE:          0
cpu0->cpu0_DTLB PREFETCH REQUESTED:          0 ISSUED:          0 USEFUL:          0 USELESS:          0
cpu0->cpu0_DTLB AVERAGE MISS LATENCY: 461.3 cycles
cpu0->LLC TOTAL        ACCESS:    1135010 HIT:     268789 MISS:     866221 MSHR_MERGE:          0
cpu0->LLC LOAD         ACCESS:     596189 HIT:       7058 MISS:     589131 MSHR_MERGE:          0
cpu0->LLC RFO          ACCESS:     260804 HIT:        217 MISS:     260587 MSHR_MERGE:          0
cpu0->LLC PREFETCH     ACCESS:          0 HIT:          0 MISS:          0 MSHR_MERGE:          0
cpu0->LLC WRITE        ACCESS:     262165 HIT:     261340 MISS:        825 MSHR_MERGE:          0
cpu0->LLC TRANSLATION  ACCESS:      15852 HIT:        174 MISS:      15678 MSHR_MERGE:          0
cpu0->LLC PREFETCH REQUESTED:          0 ISSUED:          0 USEFUL:          0 USELESS:          0
cpu0->LLC AVERAGE MISS LATENCY: 208.6 cycles

DRAM Statistics

Channel 0 RQ ROW_BUFFER_HIT:        109
  ROW_BUFFER_MISS:     865287
  AVG DBUS CONGESTED CYCLE: 11.59
Channel 0 WQ ROW_BUFFER_HIT:     101375
  ROW_BUFFER_MISS:     170794
  FULL:          0
Channel 0 REFRESHES ISSUED:      12092
