[VMEM] WARNING: physical memory size is smaller than virtual memory size.

*** ChampSim Multicore Out-of-Order Simulator ***
Warmup Instructions: 50000000
Simulation Instructions: 100000000
Number of CPUs: 1
Page size: 4096

Off-chip DRAM Size: 16 GiB Channels: 1 Width: 64-bit Data Rate: 3205 MT/s
Heartbeat CPU 0 instructions: 10000003 cycles: 2560318 heartbeat IPC: 3.906 cumulative IPC: 3.906 (Simulation time: 00 hr 00 min 41 sec)
Heartbeat CPU 0 instructions: 20000003 cycles: 5072909 heartbeat IPC: 3.98 cumulative IPC: 3.943 (Simulation time: 00 hr 01 min 26 sec)
Heartbeat CPU 0 instructions: 30000005 cycles: 7590237 heartbeat IPC: 3.972 cumulative IPC: 3.952 (Simulation time: 00 hr 02 min 11 sec)
Heartbeat CPU 0 instructions: 40000006 cycles: 10102355 heartbeat IPC: 3.981 cumulative IPC: 3.959 (Simulation time: 00 hr 02 min 46 sec)
Warmup finished CPU 0 instructions: 50000000 cycles: 12616654 cumulative IPC: 3.963 (Simulation time: 00 hr 03 min 13 sec)
Warmup complete CPU 0 instructions: 50000000 cycles: 12616654 cumulative IPC: 3.963 (Simulation time: 00 hr 03 min 13 sec)
Heartbeat CPU 0 instructions: 50000008 cycles: 12616656 heartbeat IPC: 3.977 cumulative IPC: 4 (Simulation time: 00 hr 03 min 13 sec)
Heartbeat CPU 0 instructions: 60000008 cycles: 16979228 heartbeat IPC: 2.292 cumulative IPC: 2.292 (Simulation time: 00 hr 03 min 48 sec)
Heartbeat CPU 0 instructions: 70000010 cycles: 21406614 heartbeat IPC: 2.259 cumulative IPC: 2.275 (Simulation time: 00 hr 04 min 34 sec)
Heartbeat CPU 0 instructions: 80000011 cycles: 25777517 heartbeat IPC: 2.288 cumulative IPC: 2.279 (Simulation time: 00 hr 05 min 25 sec)
Heartbeat CPU 0 instructions: 90000012 cycles: 30174688 heartbeat IPC: 2.274 cumulative IPC: 2.278 (Simulation time: 00 hr 05 min 59 sec)
Heartbeat CPU 0 instructions: 100000012 cycles: 34466335 heartbeat IPC: 2.33 cumulative IPC: 2.288 (Simulation time: 00 hr 06 min 32 sec)
Heartbeat CPU 0 instructions: 110000015 cycles: 38661567 heartbeat IPC: 2.384 cumulative IPC: 2.304 (Simulation time: 00 hr 07 min 06 sec)
Heartbeat CPU 0 instructions: 120000016 cycles: 51419759 heartbeat IPC: 0.7838 cumulative IPC: 1.804 (Simulation time: 00 hr 08 min 22 sec)
Heartbeat CPU 0 instructions: 130000017 cycles: 55482603 heartbeat IPC: 2.461 cumulative IPC: 1.866 (Simulation time: 00 hr 08 min 56 sec)
Heartbeat CPU 0 instructions: 140000021 cycles: 62697116 heartbeat IPC: 1.386 cumulative IPC: 1.797 (Simulation time: 00 hr 09 min 41 sec)
Simulation finished CPU 0 instructions: 100000000 cycles: 55023115 cumulative IPC: 1.817 (Simulation time: 00 hr 10 min 14 sec)
Simulation complete CPU 0 instructions: 100000000 cycles: 55023115 cumulative IPC: 1.817 (Simulation time: 00 hr 10 min 14 sec)

ChampSim completed all CPUs

=== Simulation ===
CPU 0 runs /home/zevs_gromovergec/Programming/Interview/Sber/Programming_modulating/ChampSim/tracers/625.x264_s-39B.champsimtrace.xz

Region of Interest Statistics

CPU 0 cumulative IPC: 1.817 instructions: 100000000 cycles: 55023115
CPU 0 Branch Prediction Accuracy: 91.33% MPKI: 3.491 Average ROB Occupancy at Mispredict: 76.72
Branch type MPKI
BRANCH_DIRECT_JUMP: 0.0026
BRANCH_INDIRECT: 0.00318
BRANCH_CONDITIONAL: 3.316
BRANCH_DIRECT_CALL: 0.0024
BRANCH_INDIRECT_CALL: 0.06673
BRANCH_RETURN: 0.1004

cpu0->cpu0_STLB TOTAL        ACCESS:      92246 HIT:      89767 MISS:       2479 MSHR_MERGE:          0
cpu0->cpu0_STLB LOAD         ACCESS:      92246 HIT:      89767 MISS:       2479 MSHR_MERGE:          0
cpu0->cpu0_STLB RFO          ACCESS:          0 HIT:          0 MISS:          0 MSHR_MERGE:          0
cpu0->cpu0_STLB PREFETCH     ACCESS:          0 HIT:          0 MISS:          0 MSHR_MERGE:          0
cpu0->cpu0_STLB WRITE        ACCESS:          0 HIT:          0 MISS:          0 MSHR_MERGE:          0
cpu0->cpu0_STLB TRANSLATION  ACCESS:          0 HIT:          0 MISS:          0 MSHR_MERGE:          0
cpu0->cpu0_STLB PREFETCH REQUESTED:          0 ISSUED:          0 USEFUL:          0 USELESS:          0
cpu0->cpu0_STLB AVERAGE MISS LATENCY: 736.4 cycles
cpu0->cpu0_L2C TOTAL        ACCESS:     847611 HIT:     349522 MISS:     498089 MSHR_MERGE:          0
cpu0->cpu0_L2C LOAD         ACCESS:     643137 HIT:     319342 MISS:     323795 MSHR_MERGE:          0
cpu0->cpu0_L2C RFO          ACCESS:      86009 HIT:      12025 MISS:      73984 MSHR_MERGE:          0
cpu0->cpu0_L2C PREFETCH     ACCESS:          0 HIT:          0 MISS:          0 MSHR_MERGE:          0
cpu0->cpu0_L2C WRITE        ACCESS:     114938 HIT:      18154 MISS:      96784 MSHR_MERGE:          0
cpu0->cpu0_L2C TRANSLATION  ACCESS:       3527 HIT:          1 MISS:       3526 MSHR_MERGE:          0
cpu0->cpu0_L2C PREFETCH REQUESTED:          0 ISSUED:          0 USEFUL:          0 USELESS:          0
cpu0->cpu0_L2C AVERAGE MISS LATENCY: 99.8 cycles
cpu0->cpu0_L1I TOTAL        ACCESS:   11143279 HIT:   10421361 MISS:     721918 MSHR_MERGE:     276109
cpu0->cpu0_L1I LOAD         ACCESS:   11143279 HIT:   10421361 MISS:     721918 MSHR_MERGE:     276109
cpu0->cpu0_L1I RFO          ACCESS:          0 HIT:          0 MISS:          0 MSHR_MERGE:          0
cpu0->cpu0_L1I PREFETCH     ACCESS:          0 HIT:          0 MISS:          0 MSHR_MERGE:          0
cpu0->cpu0_L1I WRITE        ACCESS:          0 HIT:          0 MISS:          0 MSHR_MERGE:          0
cpu0->cpu0_L1I TRANSLATION  ACCESS:          0 HIT:          0 MISS:          0 MSHR_MERGE:          0
cpu0->cpu0_L1I PREFETCH REQUESTED:          0 ISSUED:          0 USEFUL:          0 USELESS:          0
cpu0->cpu0_L1I AVERAGE MISS LATENCY: 12.77 cycles
cpu0->cpu0_L1D TOTAL        ACCESS:   21782399 HIT:   20673345 MISS:    1109054 MSHR_MERGE:     822188
cpu0->cpu0_L1D LOAD         ACCESS:   15108972 HIT:   14663879 MISS:     445093 MSHR_MERGE:     247765
cpu0->cpu0_L1D RFO          ACCESS:          0 HIT:          0 MISS:          0 MSHR_MERGE:          0
cpu0->cpu0_L1D PREFETCH     ACCESS:          0 HIT:          0 MISS:          0 MSHR_MERGE:          0
cpu0->cpu0_L1D WRITE        ACCESS:    6668451 HIT:    6008108 MISS:     660343 MSHR_MERGE:     574332
cpu0->cpu0_L1D TRANSLATION  ACCESS:       4976 HIT:       1358 MISS:       3618 MSHR_MERGE:         91
cpu0->cpu0_L1D PREFETCH REQUESTED:          0 ISSUED:          0 USEFUL:          0 USELESS:          0
cpu0->cpu0_L1D AVERAGE MISS LATENCY: 172.5 cycles
cpu0->cpu0_ITLB TOTAL        ACCESS:    9795501 HIT:    9792086 MISS:       3415 MSHR_MERGE:       2394
cpu0->cpu0_ITLB LOAD         ACCESS:    9795501 HIT:    9792086 MISS:       3415 MSHR_MERGE:       2394
cpu0->cpu0_ITLB RFO          ACCESS:          0 HIT:          0 MISS:          0 MSHR_MERGE:          0
cpu0->cpu0_ITLB PREFETCH     ACCESS:          0 HIT:          0 MISS:          0 MSHR_MERGE:          0
cpu0->cpu0_ITLB WRITE        ACCESS:          0 HIT:          0 MISS:          0 MSHR_MERGE:          0
cpu0->cpu0_ITLB TRANSLATION  ACCESS:          0 HIT:          0 MISS:          0 MSHR_MERGE:          0
cpu0->cpu0_ITLB PREFETCH REQUESTED:          0 ISSUED:          0 USEFUL:          0 USELESS:          0
cpu0->cpu0_ITLB AVERAGE MISS LATENCY: 55.57 cycles
cpu0->cpu0_DTLB TOTAL        ACCESS:   20640393 HIT:   20448467 MISS:     191926 MSHR_MERGE:     100701
cpu0->cpu0_DTLB LOAD         ACCESS:   20640393 HIT:   20448467 MISS:     191926 MSHR_MERGE:     100701
cpu0->cpu0_DTLB RFO          ACCESS:          0 HIT:          0 MISS:          0 MSHR_MERGE:          0
cpu0->cpu0_DTLB PREFETCH     ACCESS:          0 HIT:          0 MISS:          0 MSHR_MERGE:          0
cpu0->cpu0_DTLB WRITE        ACCESS:          0 HIT:          0 MISS:          0 MSHR_MERGE:          0
cpu0->cpu0_DTLB TRANSLATION  ACCESS:          0 HIT:          0 MISS:          0 MSHR_MERGE:          0
cpu0->cpu0_DTLB PREFETCH REQUESTED:          0 ISSUED:          0 USEFUL:          0 USELESS:          0
cpu0->cpu0_DTLB AVERAGE MISS LATENCY: 24.47 cycles
cpu0->LLC TOTAL        ACCESS:     500330 HIT:     312822 MISS:     187508 MSHR_MERGE:          0
cpu0->LLC LOAD         ACCESS:     323795 HIT:     211115 MISS:     112680 MSHR_MERGE:          0
cpu0->LLC RFO          ACCESS:      73983 HIT:       3399 MISS:      70584 MSHR_MERGE:          0
cpu0->LLC PREFETCH     ACCESS:          0 HIT:          0 MISS:          0 MSHR_MERGE:          0
cpu0->LLC WRITE        ACCESS:      99026 HIT:      98265 MISS:        761 MSHR_MERGE:          0
cpu0->LLC TRANSLATION  ACCESS:       3526 HIT:         43 MISS:       3483 MSHR_MERGE:          0
cpu0->LLC PREFETCH REQUESTED:          0 ISSUED:          0 USEFUL:          0 USELESS:          0
cpu0->LLC AVERAGE MISS LATENCY: 229.9 cycles

DRAM Statistics

Channel 0 RQ ROW_BUFFER_HIT:       3484
  ROW_BUFFER_MISS:     183238
  AVG DBUS CONGESTED CYCLE: 10.96
Channel 0 WQ ROW_BUFFER_HIT:      23659
  ROW_BUFFER_MISS:      67098
  FULL:          0
Channel 0 REFRESHES ISSUED:       4585
