[VMEM] WARNING: physical memory size is smaller than virtual memory size.

*** ChampSim Multicore Out-of-Order Simulator ***
Warmup Instructions: 50000000
Simulation Instructions: 100000000
Number of CPUs: 1
Page size: 4096

Initialize SIGNATURE TABLE
ST_SET: 1
ST_WAY: 256
ST_TAG_BIT: 16

Initialize PATTERN TABLE
PT_SET: 512
PT_WAY: 4
SIG_DELTA_BIT: 7
C_SIG_BIT: 4
C_DELTA_BIT: 4

Initialize PREFETCH FILTER
FILTER_SET: 1024
Off-chip DRAM Size: 16 GiB Channels: 1 Width: 64-bit Data Rate: 3205 MT/s
Heartbeat CPU 0 instructions: 10000000 cycles: 2558339 heartbeat IPC: 3.909 cumulative IPC: 3.909 (Simulation time: 00 hr 00 min 50 sec)
Heartbeat CPU 0 instructions: 20000002 cycles: 5147820 heartbeat IPC: 3.862 cumulative IPC: 3.885 (Simulation time: 00 hr 01 min 44 sec)
Heartbeat CPU 0 instructions: 30000005 cycles: 7661020 heartbeat IPC: 3.979 cumulative IPC: 3.916 (Simulation time: 00 hr 02 min 37 sec)
Heartbeat CPU 0 instructions: 40000008 cycles: 10176275 heartbeat IPC: 3.976 cumulative IPC: 3.931 (Simulation time: 00 hr 03 min 32 sec)
Warmup finished CPU 0 instructions: 50000000 cycles: 12680032 cumulative IPC: 3.943 (Simulation time: 00 hr 04 min 26 sec)
Warmup complete CPU 0 instructions: 50000000 cycles: 12680032 cumulative IPC: 3.943 (Simulation time: 00 hr 04 min 26 sec)
Heartbeat CPU 0 instructions: 50000010 cycles: 12680034 heartbeat IPC: 3.994 cumulative IPC: 5 (Simulation time: 00 hr 04 min 26 sec)
Heartbeat CPU 0 instructions: 60000014 cycles: 17377001 heartbeat IPC: 2.129 cumulative IPC: 2.129 (Simulation time: 00 hr 05 min 45 sec)
Heartbeat CPU 0 instructions: 70000018 cycles: 22398673 heartbeat IPC: 1.991 cumulative IPC: 2.058 (Simulation time: 00 hr 07 min 05 sec)
Heartbeat CPU 0 instructions: 80000018 cycles: 27417038 heartbeat IPC: 1.993 cumulative IPC: 2.036 (Simulation time: 00 hr 08 min 24 sec)
Heartbeat CPU 0 instructions: 90000019 cycles: 32474664 heartbeat IPC: 1.977 cumulative IPC: 2.021 (Simulation time: 00 hr 09 min 44 sec)
Heartbeat CPU 0 instructions: 100000019 cycles: 37496404 heartbeat IPC: 1.991 cumulative IPC: 2.015 (Simulation time: 00 hr 11 min 05 sec)
Heartbeat CPU 0 instructions: 110000020 cycles: 42517538 heartbeat IPC: 1.992 cumulative IPC: 2.011 (Simulation time: 00 hr 12 min 25 sec)
Heartbeat CPU 0 instructions: 120000023 cycles: 47539181 heartbeat IPC: 1.991 cumulative IPC: 2.008 (Simulation time: 00 hr 13 min 46 sec)
Heartbeat CPU 0 instructions: 130000025 cycles: 52558820 heartbeat IPC: 1.992 cumulative IPC: 2.006 (Simulation time: 00 hr 15 min 07 sec)
Heartbeat CPU 0 instructions: 140000026 cycles: 57595279 heartbeat IPC: 1.986 cumulative IPC: 2.004 (Simulation time: 00 hr 16 min 28 sec)
Simulation finished CPU 0 instructions: 100000002 cycles: 49938125 cumulative IPC: 2.002 (Simulation time: 00 hr 17 min 49 sec)
Simulation complete CPU 0 instructions: 100000002 cycles: 49938125 cumulative IPC: 2.002 (Simulation time: 00 hr 17 min 49 sec)

ChampSim completed all CPUs

=== Simulation ===
CPU 0 runs /home/zevs_gromovergec/Programming/Interview/Sber/Programming_modulating/ChampSim/tracers/456.hmmer-327B.champsimtrace.xz

Region of Interest Statistics

CPU 0 cumulative IPC: 2.002 instructions: 100000002 cycles: 49938125
CPU 0 Branch Prediction Accuracy: 99.38% MPKI: 0.2744 Average ROB Occupancy at Mispredict: 104.4
Branch type MPKI
BRANCH_DIRECT_JUMP: 2e-05
BRANCH_INDIRECT: 0.00042
BRANCH_CONDITIONAL: 0.2738
BRANCH_DIRECT_CALL: 4e-05
BRANCH_INDIRECT_CALL: 0.0001
BRANCH_RETURN: 5e-05

cpu0->cpu0_STLB TOTAL        ACCESS:       6572 HIT:       6438 MISS:        134 MSHR_MERGE:          0
cpu0->cpu0_STLB LOAD         ACCESS:       6572 HIT:       6438 MISS:        134 MSHR_MERGE:          0
cpu0->cpu0_STLB RFO          ACCESS:          0 HIT:          0 MISS:          0 MSHR_MERGE:          0
cpu0->cpu0_STLB PREFETCH     ACCESS:          0 HIT:          0 MISS:          0 MSHR_MERGE:          0
cpu0->cpu0_STLB WRITE        ACCESS:          0 HIT:          0 MISS:          0 MSHR_MERGE:          0
cpu0->cpu0_STLB TRANSLATION  ACCESS:          0 HIT:          0 MISS:          0 MSHR_MERGE:          0
cpu0->cpu0_STLB PREFETCH REQUESTED:          0 ISSUED:          0 USEFUL:          0 USELESS:          0
cpu0->cpu0_STLB AVERAGE MISS LATENCY: 678.1 cycles
cpu0->cpu0_L2C TOTAL        ACCESS:    1384704 HIT:     982220 MISS:     402484 MSHR_MERGE:       1036
cpu0->cpu0_L2C LOAD         ACCESS:     147644 HIT:     144236 MISS:       3408 MSHR_MERGE:          6
cpu0->cpu0_L2C RFO          ACCESS:     266400 HIT:       7434 MISS:     258966 MSHR_MERGE:          0
cpu0->cpu0_L2C PREFETCH     ACCESS:     703425 HIT:     691401 MISS:      12024 MSHR_MERGE:       1030
cpu0->cpu0_L2C WRITE        ACCESS:     267065 HIT:     139143 MISS:     127922 MSHR_MERGE:          0
cpu0->cpu0_L2C TRANSLATION  ACCESS:        170 HIT:          6 MISS:        164 MSHR_MERGE:          0
cpu0->cpu0_L2C PREFETCH REQUESTED:     703467 ISSUED:     703425 USEFUL:         64 USELESS:        325
cpu0->cpu0_L2C AVERAGE MISS LATENCY: 44.99 cycles
cpu0->cpu0_L1I TOTAL        ACCESS:   19603082 HIT:   19603077 MISS:          5 MSHR_MERGE:          0
cpu0->cpu0_L1I LOAD         ACCESS:   19603082 HIT:   19603077 MISS:          5 MSHR_MERGE:          0
cpu0->cpu0_L1I RFO          ACCESS:          0 HIT:          0 MISS:          0 MSHR_MERGE:          0
cpu0->cpu0_L1I PREFETCH     ACCESS:          0 HIT:          0 MISS:          0 MSHR_MERGE:          0
cpu0->cpu0_L1I WRITE        ACCESS:          0 HIT:          0 MISS:          0 MSHR_MERGE:          0
cpu0->cpu0_L1I TRANSLATION  ACCESS:          0 HIT:          0 MISS:          0 MSHR_MERGE:          0
cpu0->cpu0_L1I PREFETCH REQUESTED:          0 ISSUED:          0 USEFUL:          0 USELESS:          0
cpu0->cpu0_L1I AVERAGE MISS LATENCY: 176 cycles
cpu0->cpu0_L1D TOTAL        ACCESS:   44461990 HIT:   42297772 MISS:    2164218 MSHR_MERGE:    1750009
cpu0->cpu0_L1D LOAD         ACCESS:   31490299 HIT:   31338355 MISS:     151944 MSHR_MERGE:       4305
cpu0->cpu0_L1D RFO          ACCESS:          0 HIT:          0 MISS:          0 MSHR_MERGE:          0
cpu0->cpu0_L1D PREFETCH     ACCESS:          0 HIT:          0 MISS:          0 MSHR_MERGE:          0
cpu0->cpu0_L1D WRITE        ACCESS:   12971423 HIT:   10959319 MISS:    2012104 MSHR_MERGE:    1745704
cpu0->cpu0_L1D TRANSLATION  ACCESS:        268 HIT:         98 MISS:        170 MSHR_MERGE:          0
cpu0->cpu0_L1D PREFETCH REQUESTED:          0 ISSUED:          0 USEFUL:          0 USELESS:          0
cpu0->cpu0_L1D AVERAGE MISS LATENCY: 49.82 cycles
cpu0->cpu0_ITLB TOTAL        ACCESS:   18123538 HIT:   18123536 MISS:          2 MSHR_MERGE:          1
cpu0->cpu0_ITLB LOAD         ACCESS:   18123538 HIT:   18123536 MISS:          2 MSHR_MERGE:          1
cpu0->cpu0_ITLB RFO          ACCESS:          0 HIT:          0 MISS:          0 MSHR_MERGE:          0
cpu0->cpu0_ITLB PREFETCH     ACCESS:          0 HIT:          0 MISS:          0 MSHR_MERGE:          0
cpu0->cpu0_ITLB WRITE        ACCESS:          0 HIT:          0 MISS:          0 MSHR_MERGE:          0
cpu0->cpu0_ITLB TRANSLATION  ACCESS:          0 HIT:          0 MISS:          0 MSHR_MERGE:          0
cpu0->cpu0_ITLB PREFETCH REQUESTED:          0 ISSUED:          0 USEFUL:          0 USELESS:          0
cpu0->cpu0_ITLB AVERAGE MISS LATENCY: 870 cycles
cpu0->cpu0_DTLB TOTAL        ACCESS:   42338486 HIT:   42326994 MISS:      11492 MSHR_MERGE:       4921
cpu0->cpu0_DTLB LOAD         ACCESS:   42338486 HIT:   42326994 MISS:      11492 MSHR_MERGE:       4921
cpu0->cpu0_DTLB RFO          ACCESS:          0 HIT:          0 MISS:          0 MSHR_MERGE:          0
cpu0->cpu0_DTLB PREFETCH     ACCESS:          0 HIT:          0 MISS:          0 MSHR_MERGE:          0
cpu0->cpu0_DTLB WRITE        ACCESS:          0 HIT:          0 MISS:          0 MSHR_MERGE:          0
cpu0->cpu0_DTLB TRANSLATION  ACCESS:          0 HIT:          0 MISS:          0 MSHR_MERGE:          0
cpu0->cpu0_DTLB PREFETCH REQUESTED:          0 ISSUED:          0 USEFUL:          0 USELESS:          0
cpu0->cpu0_DTLB AVERAGE MISS LATENCY: 18.73 cycles
cpu0->LLC TOTAL        ACCESS:     532696 HIT:     461717 MISS:      70979 MSHR_MERGE:         84
cpu0->LLC LOAD         ACCESS:       3402 HIT:       3284 MISS:        118 MSHR_MERGE:          2
cpu0->LLC RFO          ACCESS:     258966 HIT:     189188 MISS:      69778 MSHR_MERGE:          1
cpu0->LLC PREFETCH     ACCESS:      10934 HIT:      10346 MISS:        588 MSHR_MERGE:         81
cpu0->LLC WRITE        ACCESS:     259230 HIT:     258894 MISS:        336 MSHR_MERGE:          0
cpu0->LLC TRANSLATION  ACCESS:        164 HIT:          5 MISS:        159 MSHR_MERGE:          0
cpu0->LLC PREFETCH REQUESTED:          0 ISSUED:          0 USEFUL:          0 USELESS:          0
cpu0->LLC AVERAGE MISS LATENCY: 185.2 cycles

DRAM Statistics

Channel 0 RQ ROW_BUFFER_HIT:         11
  ROW_BUFFER_MISS:      70546
  AVG DBUS CONGESTED CYCLE: 6.466
Channel 0 WQ ROW_BUFFER_HIT:        892
  ROW_BUFFER_MISS:      68133
  FULL:          0
Channel 0 REFRESHES ISSUED:       4162
