[VMEM] WARNING: physical memory size is smaller than virtual memory size.

*** ChampSim Multicore Out-of-Order Simulator ***
Warmup Instructions: 50000000
Simulation Instructions: 100000000
Number of CPUs: 1
Page size: 4096

Off-chip DRAM Size: 16 GiB Channels: 1 Width: 64-bit Data Rate: 3205 MT/s
Heartbeat CPU 0 instructions: 10000001 cycles: 2558362 heartbeat IPC: 3.909 cumulative IPC: 3.909 (Simulation time: 00 hr 00 min 52 sec)
Heartbeat CPU 0 instructions: 20000002 cycles: 5147675 heartbeat IPC: 3.862 cumulative IPC: 3.885 (Simulation time: 00 hr 01 min 29 sec)
Heartbeat CPU 0 instructions: 30000004 cycles: 7661308 heartbeat IPC: 3.978 cumulative IPC: 3.916 (Simulation time: 00 hr 02 min 07 sec)
Heartbeat CPU 0 instructions: 40000006 cycles: 10176610 heartbeat IPC: 3.976 cumulative IPC: 3.931 (Simulation time: 00 hr 03 min 00 sec)
Warmup finished CPU 0 instructions: 50000000 cycles: 12681470 cumulative IPC: 3.943 (Simulation time: 00 hr 03 min 55 sec)
Warmup complete CPU 0 instructions: 50000000 cycles: 12681470 cumulative IPC: 3.943 (Simulation time: 00 hr 03 min 55 sec)
Heartbeat CPU 0 instructions: 50000010 cycles: 12681472 heartbeat IPC: 3.992 cumulative IPC: 5 (Simulation time: 00 hr 03 min 55 sec)
Heartbeat CPU 0 instructions: 60000014 cycles: 17389747 heartbeat IPC: 2.124 cumulative IPC: 2.124 (Simulation time: 00 hr 04 min 53 sec)
Heartbeat CPU 0 instructions: 70000018 cycles: 22422434 heartbeat IPC: 1.987 cumulative IPC: 2.053 (Simulation time: 00 hr 05 min 53 sec)
Heartbeat CPU 0 instructions: 80000018 cycles: 27453375 heartbeat IPC: 1.988 cumulative IPC: 2.031 (Simulation time: 00 hr 07 min 05 sec)
Heartbeat CPU 0 instructions: 90000019 cycles: 32551548 heartbeat IPC: 1.961 cumulative IPC: 2.013 (Simulation time: 00 hr 08 min 26 sec)
Heartbeat CPU 0 instructions: 100000020 cycles: 37585485 heartbeat IPC: 1.987 cumulative IPC: 2.008 (Simulation time: 00 hr 09 min 46 sec)
Heartbeat CPU 0 instructions: 110000020 cycles: 42619498 heartbeat IPC: 1.986 cumulative IPC: 2.004 (Simulation time: 00 hr 11 min 06 sec)
Heartbeat CPU 0 instructions: 120000023 cycles: 47660458 heartbeat IPC: 1.984 cumulative IPC: 2.001 (Simulation time: 00 hr 12 min 28 sec)
Heartbeat CPU 0 instructions: 130000025 cycles: 52692869 heartbeat IPC: 1.987 cumulative IPC: 1.999 (Simulation time: 00 hr 13 min 49 sec)
Heartbeat CPU 0 instructions: 140000026 cycles: 57750275 heartbeat IPC: 1.977 cumulative IPC: 1.997 (Simulation time: 00 hr 15 min 07 sec)
Simulation finished CPU 0 instructions: 100000002 cycles: 50105879 cumulative IPC: 1.996 (Simulation time: 00 hr 16 min 26 sec)
Simulation complete CPU 0 instructions: 100000002 cycles: 50105879 cumulative IPC: 1.996 (Simulation time: 00 hr 16 min 26 sec)

ChampSim completed all CPUs

=== Simulation ===
CPU 0 runs /home/zevs_gromovergec/Programming/Interview/Sber/Programming_modulating/ChampSim/tracers/456.hmmer-327B.champsimtrace.xz

Region of Interest Statistics

CPU 0 cumulative IPC: 1.996 instructions: 100000002 cycles: 50105879
CPU 0 Branch Prediction Accuracy: 99.38% MPKI: 0.2744 Average ROB Occupancy at Mispredict: 106.4
Branch type MPKI
BRANCH_DIRECT_JUMP: 2e-05
BRANCH_INDIRECT: 0.00042
BRANCH_CONDITIONAL: 0.2738
BRANCH_DIRECT_CALL: 4e-05
BRANCH_INDIRECT_CALL: 0.0001
BRANCH_RETURN: 5e-05

cpu0->cpu0_STLB TOTAL        ACCESS:       6569 HIT:       6435 MISS:        134 MSHR_MERGE:          0
cpu0->cpu0_STLB LOAD         ACCESS:       6569 HIT:       6435 MISS:        134 MSHR_MERGE:          0
cpu0->cpu0_STLB RFO          ACCESS:          0 HIT:          0 MISS:          0 MSHR_MERGE:          0
cpu0->cpu0_STLB PREFETCH     ACCESS:          0 HIT:          0 MISS:          0 MSHR_MERGE:          0
cpu0->cpu0_STLB WRITE        ACCESS:          0 HIT:          0 MISS:          0 MSHR_MERGE:          0
cpu0->cpu0_STLB TRANSLATION  ACCESS:          0 HIT:          0 MISS:          0 MSHR_MERGE:          0
cpu0->cpu0_STLB PREFETCH REQUESTED:          0 ISSUED:          0 USEFUL:          0 USELESS:          0
cpu0->cpu0_STLB AVERAGE MISS LATENCY: 680.6 cycles
cpu0->cpu0_L2C TOTAL        ACCESS:     681272 HIT:     202458 MISS:     478814 MSHR_MERGE:          0
cpu0->cpu0_L2C LOAD         ACCESS:     147638 HIT:     137281 MISS:      10357 MSHR_MERGE:          0
cpu0->cpu0_L2C RFO          ACCESS:     266400 HIT:        790 MISS:     265610 MSHR_MERGE:          0
cpu0->cpu0_L2C PREFETCH     ACCESS:          0 HIT:          0 MISS:          0 MSHR_MERGE:          0
cpu0->cpu0_L2C WRITE        ACCESS:     267064 HIT:      64383 MISS:     202681 MSHR_MERGE:          0
cpu0->cpu0_L2C TRANSLATION  ACCESS:        170 HIT:          4 MISS:        166 MSHR_MERGE:          0
cpu0->cpu0_L2C PREFETCH REQUESTED:          0 ISSUED:          0 USEFUL:          0 USELESS:          0
cpu0->cpu0_L2C AVERAGE MISS LATENCY: 42.48 cycles
cpu0->cpu0_L1I TOTAL        ACCESS:   19696653 HIT:   19696648 MISS:          5 MSHR_MERGE:          0
cpu0->cpu0_L1I LOAD         ACCESS:   19696653 HIT:   19696648 MISS:          5 MSHR_MERGE:          0
cpu0->cpu0_L1I RFO          ACCESS:          0 HIT:          0 MISS:          0 MSHR_MERGE:          0
cpu0->cpu0_L1I PREFETCH     ACCESS:          0 HIT:          0 MISS:          0 MSHR_MERGE:          0
cpu0->cpu0_L1I WRITE        ACCESS:          0 HIT:          0 MISS:          0 MSHR_MERGE:          0
cpu0->cpu0_L1I TRANSLATION  ACCESS:          0 HIT:          0 MISS:          0 MSHR_MERGE:          0
cpu0->cpu0_L1I PREFETCH REQUESTED:          0 ISSUED:          0 USEFUL:          0 USELESS:          0
cpu0->cpu0_L1I AVERAGE MISS LATENCY: 216.2 cycles
cpu0->cpu0_L1D TOTAL        ACCESS:   44456981 HIT:   42089536 MISS:    2367445 MSHR_MERGE:    1953242
cpu0->cpu0_L1D LOAD         ACCESS:   31487440 HIT:   31333993 MISS:     153447 MSHR_MERGE:       5814
cpu0->cpu0_L1D RFO          ACCESS:          0 HIT:          0 MISS:          0 MSHR_MERGE:          0
cpu0->cpu0_L1D PREFETCH     ACCESS:          0 HIT:          0 MISS:          0 MSHR_MERGE:          0
cpu0->cpu0_L1D WRITE        ACCESS:   12969273 HIT:   10755445 MISS:    2213828 MSHR_MERGE:    1947428
cpu0->cpu0_L1D TRANSLATION  ACCESS:        268 HIT:         98 MISS:        170 MSHR_MERGE:          0
cpu0->cpu0_L1D PREFETCH REQUESTED:          0 ISSUED:          0 USEFUL:          0 USELESS:          0
cpu0->cpu0_L1D AVERAGE MISS LATENCY: 55.82 cycles
cpu0->cpu0_ITLB TOTAL        ACCESS:   18173483 HIT:   18173481 MISS:          2 MSHR_MERGE:          1
cpu0->cpu0_ITLB LOAD         ACCESS:   18173483 HIT:   18173481 MISS:          2 MSHR_MERGE:          1
cpu0->cpu0_ITLB RFO          ACCESS:          0 HIT:          0 MISS:          0 MSHR_MERGE:          0
cpu0->cpu0_ITLB PREFETCH     ACCESS:          0 HIT:          0 MISS:          0 MSHR_MERGE:          0
cpu0->cpu0_ITLB WRITE        ACCESS:          0 HIT:          0 MISS:          0 MSHR_MERGE:          0
cpu0->cpu0_ITLB TRANSLATION  ACCESS:          0 HIT:          0 MISS:          0 MSHR_MERGE:          0
cpu0->cpu0_ITLB PREFETCH REQUESTED:          0 ISSUED:          0 USEFUL:          0 USELESS:          0
cpu0->cpu0_ITLB AVERAGE MISS LATENCY: 809 cycles
cpu0->cpu0_DTLB TOTAL        ACCESS:   42333742 HIT:   42322259 MISS:      11483 MSHR_MERGE:       4915
cpu0->cpu0_DTLB LOAD         ACCESS:   42333742 HIT:   42322259 MISS:      11483 MSHR_MERGE:       4915
cpu0->cpu0_DTLB RFO          ACCESS:          0 HIT:          0 MISS:          0 MSHR_MERGE:          0
cpu0->cpu0_DTLB PREFETCH     ACCESS:          0 HIT:          0 MISS:          0 MSHR_MERGE:          0
cpu0->cpu0_DTLB WRITE        ACCESS:          0 HIT:          0 MISS:          0 MSHR_MERGE:          0
cpu0->cpu0_DTLB TRANSLATION  ACCESS:          0 HIT:          0 MISS:          0 MSHR_MERGE:          0
cpu0->cpu0_DTLB PREFETCH REQUESTED:          0 ISSUED:          0 USEFUL:          0 USELESS:          0
cpu0->cpu0_DTLB AVERAGE MISS LATENCY: 18.79 cycles
cpu0->LLC TOTAL        ACCESS:     542032 HIT:     460331 MISS:      81701 MSHR_MERGE:          0
cpu0->LLC LOAD         ACCESS:      10357 HIT:       9537 MISS:        820 MSHR_MERGE:          0
cpu0->LLC RFO          ACCESS:     265610 HIT:     185007 MISS:      80603 MSHR_MERGE:          0
cpu0->LLC PREFETCH     ACCESS:          0 HIT:          0 MISS:          0 MSHR_MERGE:          0
cpu0->LLC WRITE        ACCESS:     265899 HIT:     265780 MISS:        119 MSHR_MERGE:          0
cpu0->LLC TRANSLATION  ACCESS:        166 HIT:          7 MISS:        159 MSHR_MERGE:          0
cpu0->LLC PREFETCH REQUESTED:          0 ISSUED:          0 USEFUL:          0 USELESS:          0
cpu0->LLC AVERAGE MISS LATENCY: 187.2 cycles

DRAM Statistics

Channel 0 RQ ROW_BUFFER_HIT:         28
  ROW_BUFFER_MISS:      81550
  AVG DBUS CONGESTED CYCLE: 6.812
Channel 0 WQ ROW_BUFFER_HIT:       1256
  ROW_BUFFER_MISS:      78510
  FULL:          0
Channel 0 REFRESHES ISSUED:       4176
