[VMEM] WARNING: physical memory size is smaller than virtual memory size.

*** ChampSim Multicore Out-of-Order Simulator ***
Warmup Instructions: 50000000
Simulation Instructions: 100000000
Number of CPUs: 1
Page size: 4096

Off-chip DRAM Size: 16 GiB Channels: 1 Width: 64-bit Data Rate: 3205 MT/s
Heartbeat CPU 0 instructions: 10000000 cycles: 2558474 heartbeat IPC: 3.909 cumulative IPC: 3.909 (Simulation time: 00 hr 00 min 51 sec)
Heartbeat CPU 0 instructions: 20000002 cycles: 5147709 heartbeat IPC: 3.862 cumulative IPC: 3.885 (Simulation time: 00 hr 01 min 43 sec)
Heartbeat CPU 0 instructions: 30000005 cycles: 7660868 heartbeat IPC: 3.979 cumulative IPC: 3.916 (Simulation time: 00 hr 02 min 35 sec)
Heartbeat CPU 0 instructions: 40000008 cycles: 10176158 heartbeat IPC: 3.976 cumulative IPC: 3.931 (Simulation time: 00 hr 03 min 28 sec)
Warmup finished CPU 0 instructions: 50000003 cycles: 12679954 cumulative IPC: 3.943 (Simulation time: 00 hr 04 min 21 sec)
Warmup complete CPU 0 instructions: 50000003 cycles: 12679954 cumulative IPC: 3.943 (Simulation time: 00 hr 04 min 21 sec)
Heartbeat CPU 0 instructions: 50000008 cycles: 12679955 heartbeat IPC: 3.994 cumulative IPC: 5 (Simulation time: 00 hr 04 min 21 sec)
Heartbeat CPU 0 instructions: 60000009 cycles: 17445372 heartbeat IPC: 2.098 cumulative IPC: 2.098 (Simulation time: 00 hr 05 min 38 sec)
Heartbeat CPU 0 instructions: 70000010 cycles: 22553540 heartbeat IPC: 1.958 cumulative IPC: 2.026 (Simulation time: 00 hr 06 min 58 sec)
Heartbeat CPU 0 instructions: 80000014 cycles: 27659616 heartbeat IPC: 1.958 cumulative IPC: 2.003 (Simulation time: 00 hr 08 min 18 sec)
Heartbeat CPU 0 instructions: 90000015 cycles: 32834241 heartbeat IPC: 1.933 cumulative IPC: 1.985 (Simulation time: 00 hr 09 min 41 sec)
Heartbeat CPU 0 instructions: 100000015 cycles: 37938390 heartbeat IPC: 1.959 cumulative IPC: 1.98 (Simulation time: 00 hr 11 min 02 sec)
Heartbeat CPU 0 instructions: 110000017 cycles: 43042699 heartbeat IPC: 1.959 cumulative IPC: 1.976 (Simulation time: 00 hr 12 min 23 sec)
Heartbeat CPU 0 instructions: 120000021 cycles: 48154247 heartbeat IPC: 1.956 cumulative IPC: 1.973 (Simulation time: 00 hr 13 min 44 sec)
Heartbeat CPU 0 instructions: 130000022 cycles: 53253125 heartbeat IPC: 1.961 cumulative IPC: 1.972 (Simulation time: 00 hr 15 min 04 sec)
Heartbeat CPU 0 instructions: 140000024 cycles: 58384778 heartbeat IPC: 1.949 cumulative IPC: 1.969 (Simulation time: 00 hr 16 min 25 sec)
Simulation finished CPU 0 instructions: 100000004 cycles: 50806671 cumulative IPC: 1.968 (Simulation time: 00 hr 17 min 45 sec)
Simulation complete CPU 0 instructions: 100000004 cycles: 50806671 cumulative IPC: 1.968 (Simulation time: 00 hr 17 min 45 sec)

ChampSim completed all CPUs

=== Simulation ===
CPU 0 runs /home/zevs_gromovergec/Programming/Interview/Sber/Programming_modulating/ChampSim/tracers/456.hmmer-327B.champsimtrace.xz

Region of Interest Statistics

CPU 0 cumulative IPC: 1.968 instructions: 100000004 cycles: 50806671
CPU 0 Branch Prediction Accuracy: 99.38% MPKI: 0.2744 Average ROB Occupancy at Mispredict: 106.3
Branch type MPKI
BRANCH_DIRECT_JUMP: 2e-05
BRANCH_INDIRECT: 0.00042
BRANCH_CONDITIONAL: 0.2738
BRANCH_DIRECT_CALL: 4e-05
BRANCH_INDIRECT_CALL: 0.0001
BRANCH_RETURN: 5e-05

cpu0->cpu0_STLB TOTAL        ACCESS:       6565 HIT:       6431 MISS:        134 MSHR_MERGE:          0
cpu0->cpu0_STLB LOAD         ACCESS:       6565 HIT:       6431 MISS:        134 MSHR_MERGE:          0
cpu0->cpu0_STLB RFO          ACCESS:          0 HIT:          0 MISS:          0 MSHR_MERGE:          0
cpu0->cpu0_STLB PREFETCH     ACCESS:          0 HIT:          0 MISS:          0 MSHR_MERGE:          0
cpu0->cpu0_STLB WRITE        ACCESS:          0 HIT:          0 MISS:          0 MSHR_MERGE:          0
cpu0->cpu0_STLB TRANSLATION  ACCESS:          0 HIT:          0 MISS:          0 MSHR_MERGE:          0
cpu0->cpu0_STLB PREFETCH REQUESTED:          0 ISSUED:          0 USEFUL:          0 USELESS:          0
cpu0->cpu0_STLB AVERAGE MISS LATENCY: 688.7 cycles
cpu0->cpu0_L2C TOTAL        ACCESS:     681260 HIT:     354936 MISS:     326324 MSHR_MERGE:          0
cpu0->cpu0_L2C LOAD         ACCESS:     147625 HIT:      87854 MISS:      59771 MSHR_MERGE:          0
cpu0->cpu0_L2C RFO          ACCESS:     266400 HIT:        143 MISS:     266257 MSHR_MERGE:          0
cpu0->cpu0_L2C PREFETCH     ACCESS:          0 HIT:          0 MISS:          0 MSHR_MERGE:          0
cpu0->cpu0_L2C WRITE        ACCESS:     267065 HIT:     266931 MISS:        134 MSHR_MERGE:          0
cpu0->cpu0_L2C TRANSLATION  ACCESS:        170 HIT:          8 MISS:        162 MSHR_MERGE:          0
cpu0->cpu0_L2C PREFETCH REQUESTED:          0 ISSUED:          0 USEFUL:          0 USELESS:          0
cpu0->cpu0_L2C AVERAGE MISS LATENCY: 66.47 cycles
cpu0->cpu0_L1I TOTAL        ACCESS:   19775959 HIT:   19775954 MISS:          5 MSHR_MERGE:          0
cpu0->cpu0_L1I LOAD         ACCESS:   19775959 HIT:   19775954 MISS:          5 MSHR_MERGE:          0
cpu0->cpu0_L1I RFO          ACCESS:          0 HIT:          0 MISS:          0 MSHR_MERGE:          0
cpu0->cpu0_L1I PREFETCH     ACCESS:          0 HIT:          0 MISS:          0 MSHR_MERGE:          0
cpu0->cpu0_L1I WRITE        ACCESS:          0 HIT:          0 MISS:          0 MSHR_MERGE:          0
cpu0->cpu0_L1I TRANSLATION  ACCESS:          0 HIT:          0 MISS:          0 MSHR_MERGE:          0
cpu0->cpu0_L1I PREFETCH REQUESTED:          0 ISSUED:          0 USEFUL:          0 USELESS:          0
cpu0->cpu0_L1I AVERAGE MISS LATENCY: 216.6 cycles
cpu0->cpu0_L1D TOTAL        ACCESS:   44435525 HIT:   41977311 MISS:    2458214 MSHR_MERGE:    2044024
cpu0->cpu0_L1D LOAD         ACCESS:   31526326 HIT:   31370927 MISS:     155399 MSHR_MERGE:       7779
cpu0->cpu0_L1D RFO          ACCESS:          0 HIT:          0 MISS:          0 MSHR_MERGE:          0
cpu0->cpu0_L1D PREFETCH     ACCESS:          0 HIT:          0 MISS:          0 MSHR_MERGE:          0
cpu0->cpu0_L1D WRITE        ACCESS:   12908931 HIT:   10606286 MISS:    2302645 MSHR_MERGE:    2036245
cpu0->cpu0_L1D TRANSLATION  ACCESS:        268 HIT:         98 MISS:        170 MSHR_MERGE:          0
cpu0->cpu0_L1D PREFETCH REQUESTED:          0 ISSUED:          0 USEFUL:          0 USELESS:          0
cpu0->cpu0_L1D AVERAGE MISS LATENCY: 61.17 cycles
cpu0->cpu0_ITLB TOTAL        ACCESS:   18262668 HIT:   18262666 MISS:          2 MSHR_MERGE:          1
cpu0->cpu0_ITLB LOAD         ACCESS:   18262668 HIT:   18262666 MISS:          2 MSHR_MERGE:          1
cpu0->cpu0_ITLB RFO          ACCESS:          0 HIT:          0 MISS:          0 MSHR_MERGE:          0
cpu0->cpu0_ITLB PREFETCH     ACCESS:          0 HIT:          0 MISS:          0 MSHR_MERGE:          0
cpu0->cpu0_ITLB WRITE        ACCESS:          0 HIT:          0 MISS:          0 MSHR_MERGE:          0
cpu0->cpu0_ITLB TRANSLATION  ACCESS:          0 HIT:          0 MISS:          0 MSHR_MERGE:          0
cpu0->cpu0_ITLB PREFETCH REQUESTED:          0 ISSUED:          0 USEFUL:          0 USELESS:          0
cpu0->cpu0_ITLB AVERAGE MISS LATENCY: 810 cycles
cpu0->cpu0_DTLB TOTAL        ACCESS:   42332525 HIT:   42321060 MISS:      11465 MSHR_MERGE:       4901
cpu0->cpu0_DTLB LOAD         ACCESS:   42332525 HIT:   42321060 MISS:      11465 MSHR_MERGE:       4901
cpu0->cpu0_DTLB RFO          ACCESS:          0 HIT:          0 MISS:          0 MSHR_MERGE:          0
cpu0->cpu0_DTLB PREFETCH     ACCESS:          0 HIT:          0 MISS:          0 MSHR_MERGE:          0
cpu0->cpu0_DTLB WRITE        ACCESS:          0 HIT:          0 MISS:          0 MSHR_MERGE:          0
cpu0->cpu0_DTLB TRANSLATION  ACCESS:          0 HIT:          0 MISS:          0 MSHR_MERGE:          0
cpu0->cpu0_DTLB PREFETCH REQUESTED:          0 ISSUED:          0 USEFUL:          0 USELESS:          0
cpu0->cpu0_DTLB AVERAGE MISS LATENCY: 18.96 cycles
cpu0->LLC TOTAL        ACCESS:     592915 HIT:     503866 MISS:      89049 MSHR_MERGE:          0
cpu0->LLC LOAD         ACCESS:      59771 HIT:      58658 MISS:       1113 MSHR_MERGE:          0
cpu0->LLC RFO          ACCESS:     266257 HIT:     178514 MISS:      87743 MSHR_MERGE:          0
cpu0->LLC PREFETCH     ACCESS:          0 HIT:          0 MISS:          0 MSHR_MERGE:          0
cpu0->LLC WRITE        ACCESS:     266725 HIT:     266691 MISS:         34 MSHR_MERGE:          0
cpu0->LLC TRANSLATION  ACCESS:        162 HIT:          3 MISS:        159 MSHR_MERGE:          0
cpu0->LLC PREFETCH REQUESTED:          0 ISSUED:          0 USEFUL:          0 USELESS:          0
cpu0->LLC AVERAGE MISS LATENCY: 187.5 cycles

DRAM Statistics

Channel 0 RQ ROW_BUFFER_HIT:         15
  ROW_BUFFER_MISS:      88996
  AVG DBUS CONGESTED CYCLE: 6.913
Channel 0 WQ ROW_BUFFER_HIT:       1539
  ROW_BUFFER_MISS:      85365
  FULL:          0
Channel 0 REFRESHES ISSUED:       4234
