[VMEM] WARNING: physical memory size is smaller than virtual memory size.

*** ChampSim Multicore Out-of-Order Simulator ***
Warmup Instructions: 50000000
Simulation Instructions: 100000000
Number of CPUs: 1
Page size: 4096

Off-chip DRAM Size: 16 GiB Channels: 1 Width: 64-bit Data Rate: 3205 MT/s
Heartbeat CPU 0 instructions: 10000001 cycles: 2722324 heartbeat IPC: 3.673 cumulative IPC: 3.673 (Simulation time: 00 hr 00 min 48 sec)
Heartbeat CPU 0 instructions: 20000002 cycles: 5352521 heartbeat IPC: 3.802 cumulative IPC: 3.737 (Simulation time: 00 hr 01 min 36 sec)
Heartbeat CPU 0 instructions: 30000006 cycles: 7991183 heartbeat IPC: 3.79 cumulative IPC: 3.754 (Simulation time: 00 hr 02 min 24 sec)
Heartbeat CPU 0 instructions: 40000010 cycles: 10628763 heartbeat IPC: 3.791 cumulative IPC: 3.763 (Simulation time: 00 hr 03 min 13 sec)
Warmup finished CPU 0 instructions: 50000000 cycles: 13266334 cumulative IPC: 3.769 (Simulation time: 00 hr 04 min 01 sec)
Warmup complete CPU 0 instructions: 50000000 cycles: 13266334 cumulative IPC: 3.769 (Simulation time: 00 hr 04 min 01 sec)
Heartbeat CPU 0 instructions: 50000010 cycles: 13266336 heartbeat IPC: 3.791 cumulative IPC: 5 (Simulation time: 00 hr 04 min 01 sec)
Heartbeat CPU 0 instructions: 60000012 cycles: 32951803 heartbeat IPC: 0.508 cumulative IPC: 0.508 (Simulation time: 00 hr 07 min 12 sec)
Heartbeat CPU 0 instructions: 70000015 cycles: 61164039 heartbeat IPC: 0.3545 cumulative IPC: 0.4176 (Simulation time: 00 hr 11 min 24 sec)
Heartbeat CPU 0 instructions: 80000019 cycles: 89342612 heartbeat IPC: 0.3549 cumulative IPC: 0.3943 (Simulation time: 00 hr 15 min 08 sec)
Heartbeat CPU 0 instructions: 90000020 cycles: 117570420 heartbeat IPC: 0.3543 cumulative IPC: 0.3835 (Simulation time: 00 hr 17 min 45 sec)
Heartbeat CPU 0 instructions: 100000020 cycles: 145184398 heartbeat IPC: 0.3621 cumulative IPC: 0.379 (Simulation time: 00 hr 19 min 43 sec)
Heartbeat CPU 0 instructions: 110000020 cycles: 159618181 heartbeat IPC: 0.6928 cumulative IPC: 0.41 (Simulation time: 00 hr 20 min 51 sec)
Heartbeat CPU 0 instructions: 120000024 cycles: 168352795 heartbeat IPC: 1.145 cumulative IPC: 0.4514 (Simulation time: 00 hr 21 min 36 sec)
Heartbeat CPU 0 instructions: 130000026 cycles: 177518315 heartbeat IPC: 1.091 cumulative IPC: 0.4871 (Simulation time: 00 hr 22 min 27 sec)
Heartbeat CPU 0 instructions: 140000026 cycles: 186679179 heartbeat IPC: 1.092 cumulative IPC: 0.519 (Simulation time: 00 hr 23 min 17 sec)
Simulation finished CPU 0 instructions: 100000004 cycles: 182586468 cumulative IPC: 0.5477 (Simulation time: 00 hr 24 min 07 sec)
Simulation complete CPU 0 instructions: 100000004 cycles: 182586468 cumulative IPC: 0.5477 (Simulation time: 00 hr 24 min 07 sec)

ChampSim completed all CPUs

=== Simulation ===
CPU 0 runs ./tracers/437.leslie3d-149B.champsimtrace.xz

Region of Interest Statistics

CPU 0 cumulative IPC: 0.5477 instructions: 100000004 cycles: 182586468
CPU 0 Branch Prediction Accuracy: 99.05% MPKI: 0.353 Average ROB Occupancy at Mispredict: 300.3
Branch type MPKI
BRANCH_DIRECT_JUMP: 0.00026
BRANCH_INDIRECT: 0
BRANCH_CONDITIONAL: 0.3518
BRANCH_DIRECT_CALL: 0.00046
BRANCH_INDIRECT_CALL: 0
BRANCH_RETURN: 0.00043

cpu0->cpu0_STLB TOTAL        ACCESS:      30935 HIT:       4790 MISS:      26145 MSHR_MERGE:          0
cpu0->cpu0_STLB LOAD         ACCESS:      30935 HIT:       4790 MISS:      26145 MSHR_MERGE:          0
cpu0->cpu0_STLB RFO          ACCESS:          0 HIT:          0 MISS:          0 MSHR_MERGE:          0
cpu0->cpu0_STLB PREFETCH     ACCESS:          0 HIT:          0 MISS:          0 MSHR_MERGE:          0
cpu0->cpu0_STLB WRITE        ACCESS:          0 HIT:          0 MISS:          0 MSHR_MERGE:          0
cpu0->cpu0_STLB TRANSLATION  ACCESS:          0 HIT:          0 MISS:          0 MSHR_MERGE:          0
cpu0->cpu0_STLB PREFETCH REQUESTED:          0 ISSUED:          0 USEFUL:          0 USELESS:          0
cpu0->cpu0_STLB AVERAGE MISS LATENCY: 475.1 cycles
cpu0->cpu0_L2C TOTAL        ACCESS:    1631045 HIT:     548727 MISS:    1082318 MSHR_MERGE:          0
cpu0->cpu0_L2C LOAD         ACCESS:     731563 HIT:      22918 MISS:     708645 MSHR_MERGE:          0
cpu0->cpu0_L2C RFO          ACCESS:     356172 HIT:      13413 MISS:     342759 MSHR_MERGE:          0
cpu0->cpu0_L2C PREFETCH     ACCESS:          0 HIT:          0 MISS:          0 MSHR_MERGE:          0
cpu0->cpu0_L2C WRITE        ACCESS:     503295 HIT:     503243 MISS:         52 MSHR_MERGE:          0
cpu0->cpu0_L2C TRANSLATION  ACCESS:      40015 HIT:       9153 MISS:      30862 MSHR_MERGE:          0
cpu0->cpu0_L2C PREFETCH REQUESTED:          0 ISSUED:          0 USEFUL:          0 USELESS:          0
cpu0->cpu0_L2C AVERAGE MISS LATENCY: 220.1 cycles
cpu0->cpu0_L1I TOTAL        ACCESS:   16939333 HIT:   16938858 MISS:        475 MSHR_MERGE:        189
cpu0->cpu0_L1I LOAD         ACCESS:   16939333 HIT:   16938858 MISS:        475 MSHR_MERGE:        189
cpu0->cpu0_L1I RFO          ACCESS:          0 HIT:          0 MISS:          0 MSHR_MERGE:          0
cpu0->cpu0_L1I PREFETCH     ACCESS:          0 HIT:          0 MISS:          0 MSHR_MERGE:          0
cpu0->cpu0_L1I WRITE        ACCESS:          0 HIT:          0 MISS:          0 MSHR_MERGE:          0
cpu0->cpu0_L1I TRANSLATION  ACCESS:          0 HIT:          0 MISS:          0 MSHR_MERGE:          0
cpu0->cpu0_L1I PREFETCH REQUESTED:          0 ISSUED:          0 USEFUL:          0 USELESS:          0
cpu0->cpu0_L1I AVERAGE MISS LATENCY: 237.9 cycles
cpu0->cpu0_L1D TOTAL        ACCESS:   32202124 HIT:   28828202 MISS:    3373922 MSHR_MERGE:    2246455
cpu0->cpu0_L1D LOAD         ACCESS:   27441283 HIT:   25739003 MISS:    1702280 MSHR_MERGE:     971003
cpu0->cpu0_L1D RFO          ACCESS:          0 HIT:          0 MISS:          0 MSHR_MERGE:          0
cpu0->cpu0_L1D PREFETCH     ACCESS:          0 HIT:          0 MISS:          0 MSHR_MERGE:          0
cpu0->cpu0_L1D WRITE        ACCESS:    4708521 HIT:    3076898 MISS:    1631623 MSHR_MERGE:    1275448
cpu0->cpu0_L1D TRANSLATION  ACCESS:      52320 HIT:      12301 MISS:      40019 MSHR_MERGE:          4
cpu0->cpu0_L1D PREFETCH REQUESTED:          0 ISSUED:          0 USEFUL:          0 USELESS:          0
cpu0->cpu0_L1D AVERAGE MISS LATENCY: 220.2 cycles
cpu0->cpu0_ITLB TOTAL        ACCESS:   14436829 HIT:   14436785 MISS:         44 MSHR_MERGE:         29
cpu0->cpu0_ITLB LOAD         ACCESS:   14436829 HIT:   14436785 MISS:         44 MSHR_MERGE:         29
cpu0->cpu0_ITLB RFO          ACCESS:          0 HIT:          0 MISS:          0 MSHR_MERGE:          0
cpu0->cpu0_ITLB PREFETCH     ACCESS:          0 HIT:          0 MISS:          0 MSHR_MERGE:          0
cpu0->cpu0_ITLB WRITE        ACCESS:          0 HIT:          0 MISS:          0 MSHR_MERGE:          0
cpu0->cpu0_ITLB TRANSLATION  ACCESS:          0 HIT:          0 MISS:          0 MSHR_MERGE:          0
cpu0->cpu0_ITLB PREFETCH REQUESTED:          0 ISSUED:          0 USEFUL:          0 USELESS:          0
cpu0->cpu0_ITLB AVERAGE MISS LATENCY: 829.8 cycles
cpu0->cpu0_DTLB TOTAL        ACCESS:   31002060 HIT:   30909315 MISS:      92745 MSHR_MERGE:      61825
cpu0->cpu0_DTLB LOAD         ACCESS:   31002060 HIT:   30909315 MISS:      92745 MSHR_MERGE:      61825
cpu0->cpu0_DTLB RFO          ACCESS:          0 HIT:          0 MISS:          0 MSHR_MERGE:          0
cpu0->cpu0_DTLB PREFETCH     ACCESS:          0 HIT:          0 MISS:          0 MSHR_MERGE:          0
cpu0->cpu0_DTLB WRITE        ACCESS:          0 HIT:          0 MISS:          0 MSHR_MERGE:          0
cpu0->cpu0_DTLB TRANSLATION  ACCESS:          0 HIT:          0 MISS:          0 MSHR_MERGE:          0
cpu0->cpu0_DTLB PREFETCH REQUESTED:          0 ISSUED:          0 USEFUL:          0 USELESS:          0
cpu0->cpu0_DTLB AVERAGE MISS LATENCY: 407.2 cycles
cpu0->LLC TOTAL        ACCESS:    1569301 HIT:     498991 MISS:    1070310 MSHR_MERGE:          0
cpu0->LLC LOAD         ACCESS:     708645 HIT:       9056 MISS:     699589 MSHR_MERGE:          0
cpu0->LLC RFO          ACCESS:     342759 HIT:       3135 MISS:     339624 MSHR_MERGE:          0
cpu0->LLC PREFETCH     ACCESS:          0 HIT:          0 MISS:          0 MSHR_MERGE:          0
cpu0->LLC WRITE        ACCESS:     487035 HIT:     486485 MISS:        550 MSHR_MERGE:          0
cpu0->LLC TRANSLATION  ACCESS:      30862 HIT:        315 MISS:      30547 MSHR_MERGE:          0
cpu0->LLC PREFETCH REQUESTED:          0 ISSUED:          0 USEFUL:          0 USELESS:          0
cpu0->LLC AVERAGE MISS LATENCY: 206.4 cycles

DRAM Statistics

Channel 0 RQ ROW_BUFFER_HIT:       1799
  ROW_BUFFER_MISS:    1067937
  AVG DBUS CONGESTED CYCLE: 10.53
Channel 0 WQ ROW_BUFFER_HIT:     162152
  ROW_BUFFER_MISS:     315706
  FULL:          0
Channel 0 REFRESHES ISSUED:      15216
