[VMEM] WARNING: physical memory size is smaller than virtual memory size.

*** ChampSim Multicore Out-of-Order Simulator ***
Warmup Instructions: 50000000
Simulation Instructions: 100000000
Number of CPUs: 1
Page size: 4096

Off-chip DRAM Size: 16 GiB Channels: 1 Width: 64-bit Data Rate: 3205 MT/s
Heartbeat CPU 0 instructions: 10000003 cycles: 2675751 heartbeat IPC: 3.737 cumulative IPC: 3.737 (Simulation time: 00 hr 00 min 51 sec)
Heartbeat CPU 0 instructions: 20000004 cycles: 5356340 heartbeat IPC: 3.731 cumulative IPC: 3.734 (Simulation time: 00 hr 01 min 41 sec)
Heartbeat CPU 0 instructions: 30000004 cycles: 8082143 heartbeat IPC: 3.669 cumulative IPC: 3.712 (Simulation time: 00 hr 02 min 32 sec)
Heartbeat CPU 0 instructions: 40000005 cycles: 10803669 heartbeat IPC: 3.674 cumulative IPC: 3.702 (Simulation time: 00 hr 03 min 21 sec)
Warmup finished CPU 0 instructions: 50000001 cycles: 13518569 cumulative IPC: 3.699 (Simulation time: 00 hr 03 min 54 sec)
Warmup complete CPU 0 instructions: 50000001 cycles: 13518569 cumulative IPC: 3.699 (Simulation time: 00 hr 03 min 54 sec)
Heartbeat CPU 0 instructions: 50000006 cycles: 13518570 heartbeat IPC: 3.683 cumulative IPC: 5 (Simulation time: 00 hr 03 min 54 sec)
Heartbeat CPU 0 instructions: 60000008 cycles: 23334649 heartbeat IPC: 1.019 cumulative IPC: 1.019 (Simulation time: 00 hr 06 min 03 sec)
Heartbeat CPU 0 instructions: 70000011 cycles: 33129845 heartbeat IPC: 1.021 cumulative IPC: 1.02 (Simulation time: 00 hr 08 min 18 sec)
Heartbeat CPU 0 instructions: 80000012 cycles: 42964251 heartbeat IPC: 1.017 cumulative IPC: 1.019 (Simulation time: 00 hr 10 min 33 sec)
Heartbeat CPU 0 instructions: 90000014 cycles: 64027533 heartbeat IPC: 0.4748 cumulative IPC: 0.7919 (Simulation time: 00 hr 14 min 39 sec)
Heartbeat CPU 0 instructions: 100000015 cycles: 87045840 heartbeat IPC: 0.4344 cumulative IPC: 0.68 (Simulation time: 00 hr 19 min 03 sec)
Heartbeat CPU 0 instructions: 110000017 cycles: 108595966 heartbeat IPC: 0.464 cumulative IPC: 0.6311 (Simulation time: 00 hr 22 min 22 sec)
Heartbeat CPU 0 instructions: 120000019 cycles: 121316269 heartbeat IPC: 0.7861 cumulative IPC: 0.6494 (Simulation time: 00 hr 24 min 36 sec)
Heartbeat CPU 0 instructions: 130000021 cycles: 133986895 heartbeat IPC: 0.7892 cumulative IPC: 0.6641 (Simulation time: 00 hr 26 min 55 sec)
Heartbeat CPU 0 instructions: 140000023 cycles: 146630480 heartbeat IPC: 0.7909 cumulative IPC: 0.6761 (Simulation time: 00 hr 28 min 31 sec)
Simulation finished CPU 0 instructions: 100000000 cycles: 145466196 cumulative IPC: 0.6874 (Simulation time: 00 hr 29 min 44 sec)
Simulation complete CPU 0 instructions: 100000000 cycles: 145466196 cumulative IPC: 0.6874 (Simulation time: 00 hr 29 min 44 sec)

ChampSim completed all CPUs

=== Simulation ===
CPU 0 runs /home/zevs_gromovergec/Programming/Interview/Sber/Programming_modulating/ChampSim/tracers/437.leslie3d-273B.champsimtrace.xz

Region of Interest Statistics

CPU 0 cumulative IPC: 0.6874 instructions: 100000000 cycles: 145466196
CPU 0 Branch Prediction Accuracy: 99.19% MPKI: 0.1548 Average ROB Occupancy at Mispredict: 335.8
Branch type MPKI
BRANCH_DIRECT_JUMP: 6e-05
BRANCH_INDIRECT: 0
BRANCH_CONDITIONAL: 0.1547
BRANCH_DIRECT_CALL: 0
BRANCH_INDIRECT_CALL: 0
BRANCH_RETURN: 1e-05

cpu0->cpu0_STLB TOTAL        ACCESS:      14233 HIT:        504 MISS:      13729 MSHR_MERGE:          0
cpu0->cpu0_STLB LOAD         ACCESS:      14233 HIT:        504 MISS:      13729 MSHR_MERGE:          0
cpu0->cpu0_STLB RFO          ACCESS:          0 HIT:          0 MISS:          0 MSHR_MERGE:          0
cpu0->cpu0_STLB PREFETCH     ACCESS:          0 HIT:          0 MISS:          0 MSHR_MERGE:          0
cpu0->cpu0_STLB WRITE        ACCESS:          0 HIT:          0 MISS:          0 MSHR_MERGE:          0
cpu0->cpu0_STLB TRANSLATION  ACCESS:          0 HIT:          0 MISS:          0 MSHR_MERGE:          0
cpu0->cpu0_STLB PREFETCH REQUESTED:          0 ISSUED:          0 USEFUL:          0 USELESS:          0
cpu0->cpu0_STLB AVERAGE MISS LATENCY: 473.7 cycles
cpu0->cpu0_L2C TOTAL        ACCESS:    1162364 HIT:      72359 MISS:    1090005 MSHR_MERGE:          0
cpu0->cpu0_L2C LOAD         ACCESS:     606046 HIT:       7454 MISS:     598592 MSHR_MERGE:          0
cpu0->cpu0_L2C RFO          ACCESS:     268539 HIT:       5557 MISS:     262982 MSHR_MERGE:          0
cpu0->cpu0_L2C PREFETCH     ACCESS:          0 HIT:          0 MISS:          0 MSHR_MERGE:          0
cpu0->cpu0_L2C WRITE        ACCESS:     271822 HIT:      59316 MISS:     212506 MSHR_MERGE:          0
cpu0->cpu0_L2C TRANSLATION  ACCESS:      15957 HIT:         32 MISS:      15925 MSHR_MERGE:          0
cpu0->cpu0_L2C PREFETCH REQUESTED:          0 ISSUED:          0 USEFUL:          0 USELESS:          0
cpu0->cpu0_L2C AVERAGE MISS LATENCY: 180.5 cycles
cpu0->cpu0_L1I TOTAL        ACCESS:   21520229 HIT:   21520070 MISS:        159 MSHR_MERGE:         71
cpu0->cpu0_L1I LOAD         ACCESS:   21520229 HIT:   21520070 MISS:        159 MSHR_MERGE:         71
cpu0->cpu0_L1I RFO          ACCESS:          0 HIT:          0 MISS:          0 MSHR_MERGE:          0
cpu0->cpu0_L1I PREFETCH     ACCESS:          0 HIT:          0 MISS:          0 MSHR_MERGE:          0
cpu0->cpu0_L1I WRITE        ACCESS:          0 HIT:          0 MISS:          0 MSHR_MERGE:          0
cpu0->cpu0_L1I TRANSLATION  ACCESS:          0 HIT:          0 MISS:          0 MSHR_MERGE:          0
cpu0->cpu0_L1I PREFETCH REQUESTED:          0 ISSUED:          0 USEFUL:          0 USELESS:          0
cpu0->cpu0_L1I AVERAGE MISS LATENCY: 225.3 cycles
cpu0->cpu0_L1D TOTAL        ACCESS:   35842685 HIT:   33394281 MISS:    2448404 MSHR_MERGE:    1557950
cpu0->cpu0_L1D LOAD         ACCESS:   33598865 HIT:   32647135 MISS:     951730 MSHR_MERGE:     345772
cpu0->cpu0_L1D RFO          ACCESS:          0 HIT:          0 MISS:          0 MSHR_MERGE:          0
cpu0->cpu0_L1D PREFETCH     ACCESS:          0 HIT:          0 MISS:          0 MSHR_MERGE:          0
cpu0->cpu0_L1D WRITE        ACCESS:    2216348 HIT:     735637 MISS:    1480711 MSHR_MERGE:    1212172
cpu0->cpu0_L1D TRANSLATION  ACCESS:      27472 HIT:      11509 MISS:      15963 MSHR_MERGE:          6
cpu0->cpu0_L1D PREFETCH REQUESTED:          0 ISSUED:          0 USEFUL:          0 USELESS:          0
cpu0->cpu0_L1D AVERAGE MISS LATENCY: 229 cycles
cpu0->cpu0_ITLB TOTAL        ACCESS:   17940969 HIT:   17940962 MISS:          7 MSHR_MERGE:          5
cpu0->cpu0_ITLB LOAD         ACCESS:   17940969 HIT:   17940962 MISS:          7 MSHR_MERGE:          5
cpu0->cpu0_ITLB RFO          ACCESS:          0 HIT:          0 MISS:          0 MSHR_MERGE:          0
cpu0->cpu0_ITLB PREFETCH     ACCESS:          0 HIT:          0 MISS:          0 MSHR_MERGE:          0
cpu0->cpu0_ITLB WRITE        ACCESS:          0 HIT:          0 MISS:          0 MSHR_MERGE:          0
cpu0->cpu0_ITLB TRANSLATION  ACCESS:          0 HIT:          0 MISS:          0 MSHR_MERGE:          0
cpu0->cpu0_ITLB PREFETCH REQUESTED:          0 ISSUED:          0 USEFUL:          0 USELESS:          0
cpu0->cpu0_ITLB AVERAGE MISS LATENCY: 880.5 cycles
cpu0->cpu0_DTLB TOTAL        ACCESS:   34518627 HIT:   34454725 MISS:      63902 MSHR_MERGE:      49671
cpu0->cpu0_DTLB LOAD         ACCESS:   34518627 HIT:   34454725 MISS:      63902 MSHR_MERGE:      49671
cpu0->cpu0_DTLB RFO          ACCESS:          0 HIT:          0 MISS:          0 MSHR_MERGE:          0
cpu0->cpu0_DTLB PREFETCH     ACCESS:          0 HIT:          0 MISS:          0 MSHR_MERGE:          0
cpu0->cpu0_DTLB WRITE        ACCESS:          0 HIT:          0 MISS:          0 MSHR_MERGE:          0
cpu0->cpu0_DTLB TRANSLATION  ACCESS:          0 HIT:          0 MISS:          0 MSHR_MERGE:          0
cpu0->cpu0_DTLB PREFETCH REQUESTED:          0 ISSUED:          0 USEFUL:          0 USELESS:          0
cpu0->cpu0_DTLB AVERAGE MISS LATENCY: 462.8 cycles
cpu0->LLC TOTAL        ACCESS:    1141674 HIT:     270943 MISS:     870731 MSHR_MERGE:          0
cpu0->LLC LOAD         ACCESS:     598592 HIT:       6988 MISS:     591604 MSHR_MERGE:          0
cpu0->LLC RFO          ACCESS:     262982 HIT:        223 MISS:     262759 MSHR_MERGE:          0
cpu0->LLC PREFETCH     ACCESS:          0 HIT:          0 MISS:          0 MSHR_MERGE:          0
cpu0->LLC WRITE        ACCESS:     264175 HIT:     263555 MISS:        620 MSHR_MERGE:          0
cpu0->LLC TRANSLATION  ACCESS:      15925 HIT:        177 MISS:      15748 MSHR_MERGE:          0
cpu0->LLC PREFETCH REQUESTED:          0 ISSUED:          0 USEFUL:          0 USELESS:          0
cpu0->LLC AVERAGE MISS LATENCY: 208.9 cycles

DRAM Statistics

Channel 0 RQ ROW_BUFFER_HIT:        103
  ROW_BUFFER_MISS:     870008
  AVG DBUS CONGESTED CYCLE: 11.55
Channel 0 WQ ROW_BUFFER_HIT:     102533
  ROW_BUFFER_MISS:     171753
  FULL:          0
Channel 0 REFRESHES ISSUED:      12122
