[VMEM] WARNING: physical memory size is smaller than virtual memory size.

*** ChampSim Multicore Out-of-Order Simulator ***
Warmup Instructions: 50000000
Simulation Instructions: 100000000
Number of CPUs: 1
Page size: 4096

Initialize SIGNATURE TABLE
ST_SET: 1
ST_WAY: 256
ST_TAG_BIT: 16

Initialize PATTERN TABLE
PT_SET: 512
PT_WAY: 4
SIG_DELTA_BIT: 7
C_SIG_BIT: 4
C_DELTA_BIT: 4

Initialize PREFETCH FILTER
FILTER_SET: 1024
Off-chip DRAM Size: 16 GiB Channels: 1 Width: 64-bit Data Rate: 3205 MT/s
Heartbeat CPU 0 instructions: 10000001 cycles: 2722089 heartbeat IPC: 3.674 cumulative IPC: 3.674 (Simulation time: 00 hr 00 min 31 sec)
Heartbeat CPU 0 instructions: 20000003 cycles: 5352204 heartbeat IPC: 3.802 cumulative IPC: 3.737 (Simulation time: 00 hr 01 min 13 sec)
Heartbeat CPU 0 instructions: 30000003 cycles: 7990788 heartbeat IPC: 3.79 cumulative IPC: 3.754 (Simulation time: 00 hr 02 min 02 sec)
Heartbeat CPU 0 instructions: 40000005 cycles: 10628316 heartbeat IPC: 3.791 cumulative IPC: 3.764 (Simulation time: 00 hr 02 min 51 sec)
Warmup finished CPU 0 instructions: 50000000 cycles: 13265804 cumulative IPC: 3.769 (Simulation time: 00 hr 03 min 40 sec)
Warmup complete CPU 0 instructions: 50000000 cycles: 13265804 cumulative IPC: 3.769 (Simulation time: 00 hr 03 min 40 sec)
Heartbeat CPU 0 instructions: 50000005 cycles: 13265805 heartbeat IPC: 3.791 cumulative IPC: 5 (Simulation time: 00 hr 03 min 40 sec)
Heartbeat CPU 0 instructions: 60000009 cycles: 19753683 heartbeat IPC: 1.541 cumulative IPC: 1.541 (Simulation time: 00 hr 05 min 05 sec)
Heartbeat CPU 0 instructions: 70000010 cycles: 27337070 heartbeat IPC: 1.319 cumulative IPC: 1.421 (Simulation time: 00 hr 06 min 39 sec)
Heartbeat CPU 0 instructions: 80000010 cycles: 34928336 heartbeat IPC: 1.317 cumulative IPC: 1.385 (Simulation time: 00 hr 08 min 15 sec)
Heartbeat CPU 0 instructions: 90000010 cycles: 42519295 heartbeat IPC: 1.317 cumulative IPC: 1.367 (Simulation time: 00 hr 09 min 52 sec)
Heartbeat CPU 0 instructions: 100000012 cycles: 50092280 heartbeat IPC: 1.32 cumulative IPC: 1.358 (Simulation time: 00 hr 11 min 32 sec)
Heartbeat CPU 0 instructions: 110000014 cycles: 58821654 heartbeat IPC: 1.146 cumulative IPC: 1.317 (Simulation time: 00 hr 13 min 28 sec)
Heartbeat CPU 0 instructions: 120000014 cycles: 63434085 heartbeat IPC: 2.168 cumulative IPC: 1.395 (Simulation time: 00 hr 14 min 47 sec)
Heartbeat CPU 0 instructions: 130000016 cycles: 67946862 heartbeat IPC: 2.216 cumulative IPC: 1.463 (Simulation time: 00 hr 16 min 02 sec)
Heartbeat CPU 0 instructions: 140000020 cycles: 72446651 heartbeat IPC: 2.222 cumulative IPC: 1.521 (Simulation time: 00 hr 17 min 17 sec)
Simulation finished CPU 0 instructions: 100000004 cycles: 63708617 cumulative IPC: 1.57 (Simulation time: 00 hr 18 min 32 sec)
Simulation complete CPU 0 instructions: 100000004 cycles: 63708617 cumulative IPC: 1.57 (Simulation time: 00 hr 18 min 32 sec)

ChampSim completed all CPUs

=== Simulation ===
CPU 0 runs ./tracers/437.leslie3d-149B.champsimtrace.xz

Region of Interest Statistics

CPU 0 cumulative IPC: 1.57 instructions: 100000004 cycles: 63708617
CPU 0 Branch Prediction Accuracy: 99.05% MPKI: 0.353 Average ROB Occupancy at Mispredict: 298.5
Branch type MPKI
BRANCH_DIRECT_JUMP: 0.00026
BRANCH_INDIRECT: 0
BRANCH_CONDITIONAL: 0.3518
BRANCH_DIRECT_CALL: 0.00046
BRANCH_INDIRECT_CALL: 0
BRANCH_RETURN: 0.00043

cpu0->cpu0_STLB TOTAL        ACCESS:      30940 HIT:       4795 MISS:      26145 MSHR_MERGE:          0
cpu0->cpu0_STLB LOAD         ACCESS:      30940 HIT:       4795 MISS:      26145 MSHR_MERGE:          0
cpu0->cpu0_STLB RFO          ACCESS:          0 HIT:          0 MISS:          0 MSHR_MERGE:          0
cpu0->cpu0_STLB PREFETCH     ACCESS:          0 HIT:          0 MISS:          0 MSHR_MERGE:          0
cpu0->cpu0_STLB WRITE        ACCESS:          0 HIT:          0 MISS:          0 MSHR_MERGE:          0
cpu0->cpu0_STLB TRANSLATION  ACCESS:          0 HIT:          0 MISS:          0 MSHR_MERGE:          0
cpu0->cpu0_STLB PREFETCH REQUESTED:          0 ISSUED:          0 USEFUL:          0 USELESS:          0
cpu0->cpu0_STLB AVERAGE MISS LATENCY: 533 cycles
cpu0->cpu0_L2C TOTAL        ACCESS:    6688220 HIT:     698042 MISS:    5990178 MSHR_MERGE:      17316
cpu0->cpu0_L2C LOAD         ACCESS:     731492 HIT:     455570 MISS:     275922 MSHR_MERGE:      12734
cpu0->cpu0_L2C RFO          ACCESS:     356166 HIT:      17018 MISS:     339148 MSHR_MERGE:          8
cpu0->cpu0_L2C PREFETCH     ACCESS:    5060738 HIT:      62520 MISS:    4998218 MSHR_MERGE:       4574
cpu0->cpu0_L2C WRITE        ACCESS:     499809 HIT:     162664 MISS:     337145 MSHR_MERGE:          0
cpu0->cpu0_L2C TRANSLATION  ACCESS:      40015 HIT:        270 MISS:      39745 MSHR_MERGE:          0
cpu0->cpu0_L2C PREFETCH REQUESTED:    5465946 ISSUED:    5060738 USEFUL:     447391 USELESS:      53314
cpu0->cpu0_L2C AVERAGE MISS LATENCY: 124 cycles
cpu0->cpu0_L1I TOTAL        ACCESS:   16502751 HIT:   16502280 MISS:        471 MSHR_MERGE:        185
cpu0->cpu0_L1I LOAD         ACCESS:   16502751 HIT:   16502280 MISS:        471 MSHR_MERGE:        185
cpu0->cpu0_L1I RFO          ACCESS:          0 HIT:          0 MISS:          0 MSHR_MERGE:          0
cpu0->cpu0_L1I PREFETCH     ACCESS:          0 HIT:          0 MISS:          0 MSHR_MERGE:          0
cpu0->cpu0_L1I WRITE        ACCESS:          0 HIT:          0 MISS:          0 MSHR_MERGE:          0
cpu0->cpu0_L1I TRANSLATION  ACCESS:          0 HIT:          0 MISS:          0 MSHR_MERGE:          0
cpu0->cpu0_L1I PREFETCH REQUESTED:          0 ISSUED:          0 USEFUL:          0 USELESS:          0
cpu0->cpu0_L1I AVERAGE MISS LATENCY: 137.9 cycles
cpu0->cpu0_L1D TOTAL        ACCESS:   32202735 HIT:   28631057 MISS:    3571678 MSHR_MERGE:    2444289
cpu0->cpu0_L1D LOAD         ACCESS:   27441894 HIT:   25954220 MISS:    1487674 MSHR_MERGE:     756468
cpu0->cpu0_L1D RFO          ACCESS:          0 HIT:          0 MISS:          0 MSHR_MERGE:          0
cpu0->cpu0_L1D PREFETCH     ACCESS:          0 HIT:          0 MISS:          0 MSHR_MERGE:          0
cpu0->cpu0_L1D WRITE        ACCESS:    4708521 HIT:    2664537 MISS:    2043984 MSHR_MERGE:    1687816
cpu0->cpu0_L1D TRANSLATION  ACCESS:      52320 HIT:      12300 MISS:      40020 MSHR_MERGE:          5
cpu0->cpu0_L1D PREFETCH REQUESTED:          0 ISSUED:          0 USEFUL:          0 USELESS:          0
cpu0->cpu0_L1D AVERAGE MISS LATENCY: 116.5 cycles
cpu0->cpu0_ITLB TOTAL        ACCESS:   14087780 HIT:   14087735 MISS:         45 MSHR_MERGE:         30
cpu0->cpu0_ITLB LOAD         ACCESS:   14087780 HIT:   14087735 MISS:         45 MSHR_MERGE:         30
cpu0->cpu0_ITLB RFO          ACCESS:          0 HIT:          0 MISS:          0 MSHR_MERGE:          0
cpu0->cpu0_ITLB PREFETCH     ACCESS:          0 HIT:          0 MISS:          0 MSHR_MERGE:          0
cpu0->cpu0_ITLB WRITE        ACCESS:          0 HIT:          0 MISS:          0 MSHR_MERGE:          0
cpu0->cpu0_ITLB TRANSLATION  ACCESS:          0 HIT:          0 MISS:          0 MSHR_MERGE:          0
cpu0->cpu0_ITLB PREFETCH REQUESTED:          0 ISSUED:          0 USEFUL:          0 USELESS:          0
cpu0->cpu0_ITLB AVERAGE MISS LATENCY: 906.5 cycles
cpu0->cpu0_DTLB TOTAL        ACCESS:   30858899 HIT:   30755799 MISS:     103100 MSHR_MERGE:      72175
cpu0->cpu0_DTLB LOAD         ACCESS:   30858899 HIT:   30755799 MISS:     103100 MSHR_MERGE:      72175
cpu0->cpu0_DTLB RFO          ACCESS:          0 HIT:          0 MISS:          0 MSHR_MERGE:          0
cpu0->cpu0_DTLB PREFETCH     ACCESS:          0 HIT:          0 MISS:          0 MSHR_MERGE:          0
cpu0->cpu0_DTLB WRITE        ACCESS:          0 HIT:          0 MISS:          0 MSHR_MERGE:          0
cpu0->cpu0_DTLB TRANSLATION  ACCESS:          0 HIT:          0 MISS:          0 MSHR_MERGE:          0
cpu0->cpu0_DTLB PREFETCH REQUESTED:          0 ISSUED:          0 USEFUL:          0 USELESS:          0
cpu0->cpu0_DTLB AVERAGE MISS LATENCY: 456 cycles
cpu0->LLC TOTAL        ACCESS:    6083914 HIT:    3507641 MISS:    2576273 MSHR_MERGE:    1487559
cpu0->LLC LOAD         ACCESS:     263188 HIT:     234132 MISS:      29056 MSHR_MERGE:       3030
cpu0->LLC RFO          ACCESS:     339140 HIT:       6115 MISS:     333025 MSHR_MERGE:         55
cpu0->LLC PREFETCH     ACCESS:    4957586 HIT:    2783230 MISS:    2174356 MSHR_MERGE:    1484474
cpu0->LLC WRITE        ACCESS:     484255 HIT:     475087 MISS:       9168 MSHR_MERGE:          0
cpu0->LLC TRANSLATION  ACCESS:      39745 HIT:       9077 MISS:      30668 MSHR_MERGE:          0
cpu0->LLC PREFETCH REQUESTED:          0 ISSUED:          0 USEFUL:          0 USELESS:          0
cpu0->LLC AVERAGE MISS LATENCY: 275.6 cycles

DRAM Statistics

Channel 0 RQ ROW_BUFFER_HIT:      16669
  ROW_BUFFER_MISS:    1062856
  AVG DBUS CONGESTED CYCLE: 7.585
Channel 0 WQ ROW_BUFFER_HIT:     102720
  ROW_BUFFER_MISS:     368136
  FULL:          0
Channel 0 REFRESHES ISSUED:       5309
