[VMEM] WARNING: physical memory size is smaller than virtual memory size.

*** ChampSim Multicore Out-of-Order Simulator ***
Warmup Instructions: 50000000
Simulation Instructions: 100000000
Number of CPUs: 1
Page size: 4096

Initialize SIGNATURE TABLE
ST_SET: 1
ST_WAY: 256
ST_TAG_BIT: 16

Initialize PATTERN TABLE
PT_SET: 512
PT_WAY: 4
SIG_DELTA_BIT: 7
C_SIG_BIT: 4
C_DELTA_BIT: 4

Initialize PREFETCH FILTER
FILTER_SET: 1024
Off-chip DRAM Size: 16 GiB Channels: 1 Width: 64-bit Data Rate: 3205 MT/s
Heartbeat CPU 0 instructions: 10000001 cycles: 2675662 heartbeat IPC: 3.737 cumulative IPC: 3.737 (Simulation time: 00 hr 00 min 51 sec)
Heartbeat CPU 0 instructions: 20000004 cycles: 5356370 heartbeat IPC: 3.73 cumulative IPC: 3.734 (Simulation time: 00 hr 01 min 44 sec)
Heartbeat CPU 0 instructions: 30000006 cycles: 8082314 heartbeat IPC: 3.668 cumulative IPC: 3.712 (Simulation time: 00 hr 02 min 35 sec)
Heartbeat CPU 0 instructions: 40000009 cycles: 10803928 heartbeat IPC: 3.674 cumulative IPC: 3.702 (Simulation time: 00 hr 03 min 26 sec)
Warmup finished CPU 0 instructions: 50000001 cycles: 13518903 cumulative IPC: 3.699 (Simulation time: 00 hr 04 min 17 sec)
Warmup complete CPU 0 instructions: 50000001 cycles: 13518903 cumulative IPC: 3.699 (Simulation time: 00 hr 04 min 17 sec)
Heartbeat CPU 0 instructions: 50000013 cycles: 13518906 heartbeat IPC: 3.683 cumulative IPC: 4 (Simulation time: 00 hr 04 min 17 sec)
Heartbeat CPU 0 instructions: 60000014 cycles: 18230142 heartbeat IPC: 2.123 cumulative IPC: 2.123 (Simulation time: 00 hr 05 min 35 sec)
Heartbeat CPU 0 instructions: 70000016 cycles: 22939772 heartbeat IPC: 2.123 cumulative IPC: 2.123 (Simulation time: 00 hr 06 min 52 sec)
Heartbeat CPU 0 instructions: 80000017 cycles: 27663661 heartbeat IPC: 2.117 cumulative IPC: 2.121 (Simulation time: 00 hr 08 min 11 sec)
Heartbeat CPU 0 instructions: 90000020 cycles: 32986289 heartbeat IPC: 1.879 cumulative IPC: 2.055 (Simulation time: 00 hr 09 min 37 sec)
Heartbeat CPU 0 instructions: 100000020 cycles: 38315335 heartbeat IPC: 1.877 cumulative IPC: 2.016 (Simulation time: 00 hr 10 min 54 sec)
Heartbeat CPU 0 instructions: 110000023 cycles: 43663934 heartbeat IPC: 1.87 cumulative IPC: 1.99 (Simulation time: 00 hr 12 min 04 sec)
Heartbeat CPU 0 instructions: 120000024 cycles: 49118447 heartbeat IPC: 1.833 cumulative IPC: 1.966 (Simulation time: 00 hr 13 min 09 sec)
Heartbeat CPU 0 instructions: 130000026 cycles: 54556645 heartbeat IPC: 1.839 cumulative IPC: 1.949 (Simulation time: 00 hr 13 min 59 sec)
Heartbeat CPU 0 instructions: 140000028 cycles: 60002214 heartbeat IPC: 1.836 cumulative IPC: 1.936 (Simulation time: 00 hr 14 min 40 sec)
Simulation finished CPU 0 instructions: 100000000 cycles: 51850811 cumulative IPC: 1.929 (Simulation time: 00 hr 15 min 17 sec)
Simulation complete CPU 0 instructions: 100000000 cycles: 51850811 cumulative IPC: 1.929 (Simulation time: 00 hr 15 min 17 sec)

ChampSim completed all CPUs

=== Simulation ===
CPU 0 runs /home/zevs_gromovergec/Programming/Interview/Sber/Programming_modulating/ChampSim/tracers/437.leslie3d-273B.champsimtrace.xz

Region of Interest Statistics

CPU 0 cumulative IPC: 1.929 instructions: 100000000 cycles: 51850811
CPU 0 Branch Prediction Accuracy: 99.19% MPKI: 0.1548 Average ROB Occupancy at Mispredict: 335.9
Branch type MPKI
BRANCH_DIRECT_JUMP: 6e-05
BRANCH_INDIRECT: 0
BRANCH_CONDITIONAL: 0.1547
BRANCH_DIRECT_CALL: 0
BRANCH_INDIRECT_CALL: 0
BRANCH_RETURN: 1e-05

cpu0->cpu0_STLB TOTAL        ACCESS:      14222 HIT:        493 MISS:      13729 MSHR_MERGE:          0
cpu0->cpu0_STLB LOAD         ACCESS:      14222 HIT:        493 MISS:      13729 MSHR_MERGE:          0
cpu0->cpu0_STLB RFO          ACCESS:          0 HIT:          0 MISS:          0 MSHR_MERGE:          0
cpu0->cpu0_STLB PREFETCH     ACCESS:          0 HIT:          0 MISS:          0 MSHR_MERGE:          0
cpu0->cpu0_STLB WRITE        ACCESS:          0 HIT:          0 MISS:          0 MSHR_MERGE:          0
cpu0->cpu0_STLB TRANSLATION  ACCESS:          0 HIT:          0 MISS:          0 MSHR_MERGE:          0
cpu0->cpu0_STLB PREFETCH REQUESTED:          0 ISSUED:          0 USEFUL:          0 USELESS:          0
cpu0->cpu0_STLB AVERAGE MISS LATENCY: 500.2 cycles
cpu0->cpu0_L2C TOTAL        ACCESS:    6856879 HIT:     555635 MISS:    6301244 MSHR_MERGE:       1788
cpu0->cpu0_L2C LOAD         ACCESS:     606367 HIT:     411614 MISS:     194753 MSHR_MERGE:       1417
cpu0->cpu0_L2C RFO          ACCESS:     268538 HIT:       3998 MISS:     264540 MSHR_MERGE:          0
cpu0->cpu0_L2C PREFETCH     ACCESS:    5694199 HIT:      23038 MISS:    5671161 MSHR_MERGE:        371
cpu0->cpu0_L2C WRITE        ACCESS:     271817 HIT:     116946 MISS:     154871 MSHR_MERGE:          0
cpu0->cpu0_L2C TRANSLATION  ACCESS:      15958 HIT:         39 MISS:      15919 MSHR_MERGE:          0
cpu0->cpu0_L2C PREFETCH REQUESTED:    7451415 ISSUED:    5694199 USEFUL:     403220 USELESS:      29610
cpu0->cpu0_L2C AVERAGE MISS LATENCY: 130.2 cycles
cpu0->cpu0_L1I TOTAL        ACCESS:   21302897 HIT:   21302743 MISS:        154 MSHR_MERGE:         66
cpu0->cpu0_L1I LOAD         ACCESS:   21302897 HIT:   21302743 MISS:        154 MSHR_MERGE:         66
cpu0->cpu0_L1I RFO          ACCESS:          0 HIT:          0 MISS:          0 MSHR_MERGE:          0
cpu0->cpu0_L1I PREFETCH     ACCESS:          0 HIT:          0 MISS:          0 MSHR_MERGE:          0
cpu0->cpu0_L1I WRITE        ACCESS:          0 HIT:          0 MISS:          0 MSHR_MERGE:          0
cpu0->cpu0_L1I TRANSLATION  ACCESS:          0 HIT:          0 MISS:          0 MSHR_MERGE:          0
cpu0->cpu0_L1I PREFETCH REQUESTED:          0 ISSUED:          0 USEFUL:          0 USELESS:          0
cpu0->cpu0_L1I AVERAGE MISS LATENCY: 139.4 cycles
cpu0->cpu0_L1D TOTAL        ACCESS:   35953383 HIT:   33287204 MISS:    2666179 MSHR_MERGE:    1775404
cpu0->cpu0_L1D LOAD         ACCESS:   33709563 HIT:   32919446 MISS:     790117 MSHR_MERGE:     183838
cpu0->cpu0_L1D RFO          ACCESS:          0 HIT:          0 MISS:          0 MSHR_MERGE:          0
cpu0->cpu0_L1D PREFETCH     ACCESS:          0 HIT:          0 MISS:          0 MSHR_MERGE:          0
cpu0->cpu0_L1D WRITE        ACCESS:    2216348 HIT:     356249 MISS:    1860099 MSHR_MERGE:    1591561
cpu0->cpu0_L1D TRANSLATION  ACCESS:      27472 HIT:      11509 MISS:      15963 MSHR_MERGE:          5
cpu0->cpu0_L1D PREFETCH REQUESTED:          0 ISSUED:          0 USEFUL:          0 USELESS:          0
cpu0->cpu0_L1D AVERAGE MISS LATENCY: 99.95 cycles
cpu0->cpu0_ITLB TOTAL        ACCESS:   17751203 HIT:   17751196 MISS:          7 MSHR_MERGE:          5
cpu0->cpu0_ITLB LOAD         ACCESS:   17751203 HIT:   17751196 MISS:          7 MSHR_MERGE:          5
cpu0->cpu0_ITLB RFO          ACCESS:          0 HIT:          0 MISS:          0 MSHR_MERGE:          0
cpu0->cpu0_ITLB PREFETCH     ACCESS:          0 HIT:          0 MISS:          0 MSHR_MERGE:          0
cpu0->cpu0_ITLB WRITE        ACCESS:          0 HIT:          0 MISS:          0 MSHR_MERGE:          0
cpu0->cpu0_ITLB TRANSLATION  ACCESS:          0 HIT:          0 MISS:          0 MSHR_MERGE:          0
cpu0->cpu0_ITLB PREFETCH REQUESTED:          0 ISSUED:          0 USEFUL:          0 USELESS:          0
cpu0->cpu0_ITLB AVERAGE MISS LATENCY: 874 cycles
cpu0->cpu0_DTLB TOTAL        ACCESS:   34602218 HIT:   34527351 MISS:      74867 MSHR_MERGE:      60647
cpu0->cpu0_DTLB LOAD         ACCESS:   34602218 HIT:   34527351 MISS:      74867 MSHR_MERGE:      60647
cpu0->cpu0_DTLB RFO          ACCESS:          0 HIT:          0 MISS:          0 MSHR_MERGE:          0
cpu0->cpu0_DTLB PREFETCH     ACCESS:          0 HIT:          0 MISS:          0 MSHR_MERGE:          0
cpu0->cpu0_DTLB WRITE        ACCESS:          0 HIT:          0 MISS:          0 MSHR_MERGE:          0
cpu0->cpu0_DTLB TRANSLATION  ACCESS:          0 HIT:          0 MISS:          0 MSHR_MERGE:          0
cpu0->cpu0_DTLB PREFETCH REQUESTED:          0 ISSUED:          0 USEFUL:          0 USELESS:          0
cpu0->cpu0_DTLB AVERAGE MISS LATENCY: 488.8 cycles
cpu0->LLC TOTAL        ACCESS:    6369187 HIT:    4384952 MISS:    1984235 MSHR_MERGE:    1108549
cpu0->LLC LOAD         ACCESS:     193336 HIT:     180045 MISS:      13291 MSHR_MERGE:        642
cpu0->LLC RFO          ACCESS:     264540 HIT:        355 MISS:     264185 MSHR_MERGE:          1
cpu0->LLC PREFETCH     ACCESS:    5630671 HIT:    3939713 MISS:    1690958 MSHR_MERGE:    1107906
cpu0->LLC WRITE        ACCESS:     264721 HIT:     264688 MISS:         33 MSHR_MERGE:          0
cpu0->LLC TRANSLATION  ACCESS:      15919 HIT:        151 MISS:      15768 MSHR_MERGE:          0
cpu0->LLC PREFETCH REQUESTED:          0 ISSUED:          0 USEFUL:          0 USELESS:          0
cpu0->LLC AVERAGE MISS LATENCY: 251.5 cycles

DRAM Statistics

Channel 0 RQ ROW_BUFFER_HIT:       5502
  ROW_BUFFER_MISS:     870149
  AVG DBUS CONGESTED CYCLE: 7.918
Channel 0 WQ ROW_BUFFER_HIT:      58375
  ROW_BUFFER_MISS:     217183
  FULL:          0
Channel 0 REFRESHES ISSUED:       4321
